
 + + + + + + + + + + + + + + + + + + + + + + + + + + + + + + + + + + + + + + + +
 + + + + + + + + + + + + + + + + + + + + + + + + + + + + + + + + + + + + + + + +
 + +                                                                         + +
 + +                      ASPEN PLUS CALCULATION HISTORY                     + +
 + +                                                                         + +
 + + + + + + + + + + + + + + + + + + + + + + + + + + + + + + + + + + + + + + + +
 + + + + + + + + + + + + + + + + + + + + + + + + + + + + + + + + + + + + + + + +

 ASPEN PLUS IS A TRADEMARK OF           HOTLINE:
 ASPEN TECHNOLOGY, INC.                 U.S.A. 888/996-7100
 781/221-6400                           EUROPE (44) 1189-226555

 PLATFORM: WIN-X64                                       AUGUST 18, 2025     
 VERSION: 40.0   Build 359                               MONDAY      
 INSTALLATION:                                           1:37:31 P.M.        

 THIS COPY OF ASPEN PLUS LICENSED TO                                 


      ASPEN PLUS (R) IS A PROPRIETARY PRODUCT OF ASPEN TECHNOLOGY, INC.
      (ASPENTECH), AND MAY BE USED ONLY UNDER AGREEMENT WITH ASPENTECH.
      RESTRICTED RIGHTS LEGEND:  USE, REPRODUCTION, OR DISCLOSURE BY THE
      U.S. GOVERNMENT IS SUBJECT TO RESTRICTIONS SET FORTH IN 
      (i) FAR 52.227-14, Alt. III, (ii) FAR 52.227-19, (iii) DFARS 
      252.227-7013(c)(1)(ii), or (iv) THE ACCOMPANYING LICENSE AGREEMENT,
      AS APPLICABLE. FOR PURPOSES OF THE FAR, THIS SOFTWARE SHALL BE DEEMED
      TO BE "UNPUBLISHED" AND LICENSED WITH DISCLOSURE PROHIBITIONS.
      CONTRACTOR/SUBCONTRACTOR: ASPEN TECHNOLOGY, INC. 20 CROSBY DRIVE,
      BEDFORD, MA 01730.
 *** INPUT SUMMARY ***

 >>CURRENT RUN

   ORIGINAL RUN                           AUGUST 18, 2025     
   1:37:31 P.M.                           MONDAY      
   INPUT FILE: _3725mjk.inm
   RUN ID : _3725mjk
          1    ;
          2    ;输入文件创建由Aspen Plus Rel. 40.0 at 13:37:29 Mon Aug 18, 2025
          3    ;Directory D:\Administrator\Downloads\Aspen_OpenMode\Aspenbkp  Runid T2-THREETOWERS4
          4    ;
          5
          6
          7    DYNAMICS
          8        DYNAMICS RESULTS=ON
          9
         10    IN-UNITS MET PRESSURE=bar TEMPERATURE=C DELTA-T=C PDROP=bar  &
         11            INVERSE-PRES='1/bar' SHORT-LENGTH=mm
         12
         13    DEF-STREAMS CONVEN ALL
         14
         15    SIM-OPTIONS MASS-BAL-CHE=YES MW-CALC=YES PROP-DERIV=ANALYTICAL
         16
         17    MODEL-OPTION
         18        RADFRAC MAXOL=100
         19
         20    DATABANKS 'APV140 PURE40' / 'APV140 AQUEOUS' / 'APV140 SOLIDS' &
         21             / 'APV140 INORGANIC' / 'APESV140 AP-EOS' /  &
         22            'NISTV140 NIST-TRC' / NOASPENPCD
         23
         24    PROP-SOURCES 'APV140 PURE40' / 'APV140 AQUEOUS' /  &
         25            'APV140 SOLIDS' / 'APV140 INORGANIC' / 'APESV140 AP-EOS' &
         26             / 'NISTV140 NIST-TRC'
         27
         28    COMPONENTS
         29        H2 /
         30        HD /
         31        HT /
         32        D2 /
         33        DT /
         34        T2 /
         35        N2 N2
         36
         37    SOLVE
         38        RUN-MODE MODE=SIM
         39
         40    FLOWSHEET
         41        BLOCK CD1 IN=S9 S2 OUT=2 3
         42        BLOCK VALVE1 IN=FROMTEP OUT=S2
         43        BLOCK B8 IN=2 OUT=S3
         44        BLOCK B9 IN=3 OUT=S18
         45        BLOCK CD2 IN=S12 OUT=S8 S10
         46        BLOCK E1 IN=S21 OUT=S11
         47        BLOCK E2 IN=S23 OUT=S5
         48        BLOCK B2 IN=S19 OUT=S13
         49        BLOCK B3 IN=S11 OUT=S9
         50        BLOCK B4 IN=S3 OUT=S14
         51        BLOCK B5 IN=S5 OUT=S15
         52        BLOCK CD3 IN=S15 OUT=S6 S7
         53        BLOCK B7 IN=S8 OUT=S19
         54        BLOCK B10 IN=S10 OUT=S17
         55        BLOCK B11 IN=S6 OUT=S4
         56        BLOCK B12 IN=S7 OUT=S16
         57        BLOCK B13 IN=S13 OUT=S21
         58        BLOCK B14 IN=S14 OUT=S23
         59        BLOCK B6 IN=S18 OUT=S1
         60        BLOCK B15 IN=S1 OUT=S12
         61
         62    PROPERTIES PENG-ROB
         63
         64    PROP-DATA PCES-1
         65        IN-UNITS MET PRESSURE=bar TEMPERATURE=C DELTA-T=C PDROP=bar  &
         66            INVERSE-PRES='1/bar' SHORT-LENGTH=mm
         67        PROP-LIST OMEGA / DHVLB / VB / RKTZRA
         68        PVAL H2 -.2190969560 / 203.7968993 / 27.12121140 /  &
         69            .3127662620
         70        PVAL HD -.1775387390 / 246.7564823 / 25.41388790 /  &
         71            .3087729860
         72        PVAL D2 -.1439358810 / 284.1995749 / 23.81939870 /  &
         73            .3055468400
         74        PVAL HT -.1626557030 / 266.7148992 / 24.65297440 /  &
         75            .3073451070
         76        PVAL DT -.1208735940 / 307.7219093 / 22.70379260 /  &
         77            .3033363200
         78        PVAL T2 -.0900709493 / 328.9390107 / 21.84708190 /  &
         79            .3003903700
         80
         81    PROP-DATA PURE-1
         82        IN-UNITS MET PRESSURE=bar TEMPERATURE=C DELTA-T=C  &
         83            MOLE-ENTHALP='kJ/kmol' PDROP=bar INVERSE-PRES='1/bar'  &
         84            SHORT-LENGTH=mm
         85        PROP-LIST OMGPRS / MW / DGFORM / DHFORM
         86        PVAL HD -0.18 / 3.023 / -1441 / 500
         87        PVAL H2 -0.22 / 2.015 / 0 / 500
         88        PVAL D2 -0.15 / 4.031 / 0 / 0
         89        PVAL T2 -0.14 / 6.032 / 0 / 0
         90        PVAL HT -0.12 / 4.0235 / -1169 / 250
         91        PVAL DT -0.13 / 5.0315 / -1661 / 250
         92
         93    PROP-DATA REVIEW-1
         94        IN-UNITS MET PRESSURE=kPa TEMPERATURE=C DELTA-T=C PDROP=bar  &
         95            INVERSE-PRES='1/bar' SHORT-LENGTH=mm
         96        PROP-LIST MUP / PC
         97        PVAL H2 0 / 1313
         98        PVAL HD 0 / 1484
         99        PVAL D2 0 / 1570
        100        PVAL HT 0 / 1661
        101        PVAL DT 0 / 1770
        102        PVAL T2 0 / 1850
        103        PROP-LIST PC
        104        PVAL N2 3400
        105
        106    PROP-DATA REVIEW-1
        107        IN-UNITS MET PRESSURE=bar TEMPERATURE=K DELTA-T=C PDROP=bar  &
        108            INVERSE-PRES='1/bar' SHORT-LENGTH=mm
        109        PROP-LIST TB / TC
        110        PVAL N2 77.344 / 126.2
        111        PVAL H2 20.39 / 33.19
        112        PVAL HD 22.13 / 35.91
        113        PVAL D2 23.67 / 37.13
        114        PVAL HT 22.92 / 38.35
        115        PVAL DT 24.38 / 39.42
        116        PVAL T2 25.04 / 40.22
        117
        118    PROP-DATA REVIEW-1
        119        IN-UNITS MET PRESSURE=bar TEMPERATURE=C DELTA-T=C PDROP=bar  &
        120            INVERSE-PRES='1/bar' SHORT-LENGTH=mm
        121        PROP-LIST TPT / VC / VLSTD / ZC
        122        PVAL H2 13.96 / 64 / 53.5578 / 0.305
        123        PVAL HD 16.60 / 63 / 53.5578 / 0.312
        124        PVAL D2 18.72 / 61 / 53.5578 / 0.312
        125        PVAL HT 17.70 / 60 / 53.5578 / 0.314
        126        PVAL DT 19.79 / 59 / 53.5578 / 0.312
        127        PVAL T2 20.62 / 57 / 53.5578 / 0.312
        128
        129    PROP-DATA CPIG-1
        130        IN-UNITS MET MOLE-HEAT-CA='kJ/kmol-K' PRESSURE=bar  &
        131            TEMPERATURE=K DELTA-T=C PDROP=bar INVERSE-PRES='1/bar'  &
        132            SHORT-LENGTH=mm
        133        PROP-LIST CPIG
        134        PVAL H2 29.1 0 0 0 0 0 0 1000
        135        PVAL HD 29.1
        136        PVAL D2 29.1
        137        PVAL HT 29.1
        138        PVAL DT 29.1
        139        PVAL T2 29.1
        140
        141    PROP-DATA DHVLWT-1
        142        IN-UNITS MET PRESSURE=bar TEMPERATURE=C DELTA-T=C PDROP=bar  &
        143            INVERSE-PRES='1/bar' SHORT-LENGTH=mm
        144        PROP-LIST DHVLWT
        145        PVAL H2 203.7968993 -252.7600000 .3928803370 .1071361390  &
        146            -264.9940000
        147        PVAL HD 246.7564823 -251.0200000 .3643526700 .4252190540  &
        148            -264.2980000
        149        PVAL D2 284.1995749 -249.4800000 .3883476380 .2792491700  &
        150            -263.6820000
        151        PVAL HT 266.7148992 -250.2300000 .3989093810 .3075742950  &
        152            -263.9820000
        153        PVAL DT 307.7219093 -248.7700000 .3277954570 .7413505460  &
        154            -263.3980000
        155        PVAL T2 328.9390107 -248.1100000 .2738591190 1.038932520  &
        156            -263.1340000
        157
        158    PROP-DATA KLDIP-1
        159        IN-UNITS MET PRESSURE=bar TEMPERATURE=C DELTA-T=C PDROP=bar  &
        160            INVERSE-PRES='1/bar' SHORT-LENGTH=mm
        161        PROP-LIST KLDIP
        162        PVAL H2 -61977.55068 -997.4421924 -6.020271425 -.0161508633  &
        163            -1.6249007E-5 -252.7600000 -240.2919000
        164        PVAL HD -36343.68124 -589.7730884 -3.589433548  &
        165            -9.7101464E-3 -9.8510095E-6 -251.0200000 -237.5991000
        166        PVAL D2 -23686.97046 -387.2548914 -2.374540124  &
        167            -6.4718563E-3 -6.6151090E-6 -249.4800000 -235.1835000
        168        PVAL HT -27403.35854 -446.3706051 -2.726949826  &
        169            -7.4049359E-3 -7.5408851E-6 -250.2300000 -236.3913000
        170        PVAL DT -18952.63882 -310.9001248 -1.912810425  &
        171            -5.2311030E-3 -5.3650657E-6 -248.7700000 -234.1242000
        172        PVAL T2 -16397.42052 -269.7572889 -1.664459250  &
        173            -4.5650489E-3 -4.6954707E-6 -248.1100000 -233.3322000
        174
        175    PROP-DATA MULAND-1
        176        IN-UNITS MET PRESSURE=bar TEMPERATURE=C DELTA-T=C PDROP=bar  &
        177            INVERSE-PRES='1/bar' SHORT-LENGTH=mm
        178        PROP-LIST MULAND
        179        PVAL H2 18.07041858 -105.7078170 -5.706295410 -252.7600000  &
        180            -240.2919000
        181        PVAL HD 20.79499208 -122.0639570 -6.207638480 -251.0200000  &
        182            -237.5991000
        183        PVAL D2 23.17728008 -138.1862500 -6.637160650 -249.4800000  &
        184            -235.1835000
        185        PVAL HT 21.97822368 -129.7052760 -6.403745850 -250.2300000  &
        186            -236.3913000
        187        PVAL DT 24.83061318 -148.4614540 -6.953448820 -248.7700000  &
        188            -234.1242000
        189        PVAL T2 27.10054008 -162.1714660 -7.427573930 -248.1100000  &
        190            -233.3322000
        191
        192    PROP-DATA PLXANT-1
        193        IN-UNITS MET PRESSURE=Pa TEMPERATURE=K DELTA-T=C PDROP=bar  &
        194            INVERSE-PRES='1/bar' SHORT-LENGTH=mm
        195        PROP-LIST PLXANT
        196        PVAL HD 11.5827 -109.417 0 0 1.57756 0 0 16.6 35.91
        197        PVAL H2 9.65496 -83.5177 0 0 1.98042 0 0 13.96 33.19
        198        PVAL D2 12.6317 -130.249 0 0 1.38962 0 0 18.72 38.35
        199        PVAL T2 15.8148 -164.486 0 0 0.707997 0 0 20.62 40.22
        200        PVAL HT 12.7295 -123.995 0 0 1.3444 0 0 17.7 37.13
        201        PVAL DT 14.2203 -147.349 0 0 1.0495 0 0 19.79 39.42
        202
        203    PROP-DATA SIGDIP-1
        204        IN-UNITS MET PRESSURE=bar TEMPERATURE=C DELTA-T=C PDROP=bar  &
        205            INVERSE-PRES='1/bar' SHORT-LENGTH=mm
        206        PROP-LIST SIGDIP
        207        PVAL H2 5.827034390 1.222222220 2.22266203E-9 -2.4553000E-9  &
        208            9.9082893E-10 -252.7600000 -240.6238000
        209        PVAL HD 7.033720880 1.222222220 4.9775901E-10 -5.502940E-10  &
        210            2.2210077E-10 -251.0200000 -237.9582000
        211        PVAL D2 8.268329990 1.222222220 -3.830075E-11 4.2691582E-11  &
        212            -1.723187E-11 -249.4800000 -235.5670000
        213        PVAL HT 7.656601030 1.222222220 5.0257552E-10 -5.556162E-10  &
        214            2.2417893E-10 -250.2300000 -236.7626000
        215        PVAL DT 9.054059370 1.222222220 -2.539793E-10 2.8085672E-10  &
        216            -1.133037E-10 -248.7700000 -234.5184000
        217        PVAL T2 9.826559390 1.222222220 -2.012366E-11 2.2455181E-11  &
        218            -9.057725E-12 -248.1100000 -233.7344000
        219
        220    STREAM FROMTEP
        221        SUBSTREAM MIXED TEMP=23.8872 <K> PRES=100. <kPa>  &
        222            MOLE-FLOW=12.894228763 <mol/hr>
        223        MOLE-FRAC H2 5.7177427E-06 / HD 0.00286066338 / HT  &
        224            0.00191026153 / D2 0.35780706501 / DT 0.477864732 /  &
        225            T2 0.15955156034
        226
        227    BLOCK B2 HEATER
        228        PARAM TEMP=25. PRES=0.8 DPPARMOPT=NO
        229
        230    BLOCK B3 HEATER
        231        PARAM TEMP=23.77 <K> PRES=98. <kPa> MAXIT=60 DPPARMOPT=NO
        232
        233    BLOCK B4 HEATER
        234        PARAM TEMP=25. PRES=0.8 DPPARMOPT=NO
        235
        236    BLOCK B5 HEATER
        237        PARAM TEMP=23.77 <K> PRES=99.1526 <kPa> NPHASE=2  &
        238            DPPARMOPT=NO
        239        BLOCK-OPTION FREE-WATER=NO
        240
        241    BLOCK B6 HEATER
        242        PARAM TEMP=25. <K> PRES=89.5 <kPa> DPPARMOPT=NO
        243
        244    BLOCK CD1 RADFRAC
        245        PARAM NSTAGE=90 ALGORITHM=STANDARD HYDRAULIC=YES MAXOL=100  &
        246            DAMPING=NONE
        247        PARAM2 STATIC-DP=YES OLD-SULZER=NO
        248        COL-CONFIG CONDENSER=PARTIAL-V CA-CONFIG=INT-1
        249        FEEDS S9 72 ON-STAGE / S2 50 ON-STAGE
        250        PRODUCTS 3 90 L / 2 1 V
        251        P-SPEC 1 90. <kPa> / 50 95.556 <kPa> / 90 100. <kPa> /  &
        252            72 98. <kPa>
        253        COL-SPECS D:F=0.3 MOLE-RR=50.
        254        SPEC 1 MOLE-RECOV 0.95 COMPS=HT STREAMS=2 BASE-STREAMS=S9  &
        255            S2 SPEC-ACTIVE=YES SPEC-DESCRIP="Purity"
        256        VARY 1 D:F 0.2 0.8 VARY-ACTIVE=YES
        257        REPORT HYDRAULIC
        258
        259    BLOCK CD2 RADFRAC
        260        PARAM NSTAGE=100 ALGORITHM=STANDARD HYDRAULIC=YES MAXOL=100  &
        261            DAMPING=NONE
        262        PARAM2 STATIC-DP=YES OLD-SULZER=NO
        263        COL-CONFIG CONDENSER=PARTIAL-V CA-CONFIG=INT-1
        264        FEEDS S12 45 ON-STAGE
        265        PRODUCTS S8 1 V / S10 100 L
        266        P-SPEC 1 90. <kPa> / 45 94.5 <kPa> / 100 100. <kPa>
        267        COL-SPECS D:F=0.78 MOLE-RR=60.
        268        SPEC 1 MOLE-FRAC 0.95 COMPS=T2 STREAMS=S10  &
        269            SPEC-DESCRIP="PurityT2"
        270        VARY 1 D:F 0.5 0.999
        271        REPORT HYDRAULIC HYDANAL
        272
        273    BLOCK CD3 RADFRAC
        274        PARAM NSTAGE=60 ALGORITHM=STANDARD HYDRAULIC=YES MAXOL=200  &
        275            DAMPING=NONE
        276        PARAM2 STATIC-DP=YES OLD-SULZER=NO
        277        COL-CONFIG CONDENSER=PARTIAL-V CA-CONFIG=INT-1
        278        FEEDS S15 45 ON-STAGE
        279        PRODUCTS S6 1 V / S7 60 L
        280        P-SPEC 1 80. <kPa> / 60 100. <kPa>
        281        COL-SPECS D:F=0.085 MOLE-RR=295.
        282        L-EST 1 4.915 / 2 4.784 / 3 4.65
        283        V-EST 1 0.0167 / 2 4.932 / 3 4.801
        284        X-EST 1 H2 0.6553 / 1 HD 0.2719 / 1 D2 0.07276 / 1  &
        285            HT 1.153E-09 / 1 DT 1.211E-12 / 1 T2 7.301E-15 /  &
        286            45 H2 0.002817 / 45 HD 0.002681 / 45 D2 0.9928 /  &
        287            45 HT 0.001646 / 45 DT 5.015E-05 / 45 T2 2.008E-06 / &
        288            60 H2 4.401E-08 / 60 HD 5.594E-05 / 60 D2 0.9295 /  &
        289            60 HT 0.06479 / 60 DT 0.005319 / 60 T2 0.0003455
        290        Y-EST 1 H2 0.7683 / 1 HD 0.1925 / 1 D2 0.03921 / 1  &
        291            HT 4.72E-10 / 1 DT 4.667E-13 / 1 T2 2.73E-15 / 45  &
        292            H2 0.00587 / 45 HD 0.003449 / 45 D2 0.9894 / 45  &
        293            HT 0.001267 / 45 DT 3.571E-05 / 45 T2 1.368E-06 /  &
        294            60 H2 9.296E-08 / 60 HD 7.324E-05 / 60 D2 0.9448 /  &
        295            60 HT 0.05098 / 60 DT 0.003871 / 60 T2 0.0002405
        296        SPEC 1 MOLE-RECOV 0.99 COMPS=D2 STREAMS=S7 BASE-STREAMS=S15  &
        297            SPEC-ACTIVE=YES SPEC-DESCRIP="PurityDT"
        298        VARY 1 D:F 1E-05 0.99 VARY-ACTIVE=YES
        299        REPORT HYDRAULIC
        300
        301    BLOCK E1 RCSTR
        302        PARAM VOL=10. TEMP=25. PRES=1.
        303        MOLE-FLOW MIXED HD 1.0000922E-12
        304        MOLE-FLOW MIXED D2 0.0303173485
        305        MOLE-FLOW MIXED HT 5.0550764E-06
        306        MOLE-FLOW MIXED DT 0.332350614
        307        MOLE-FLOW MIXED T2 0.298999154
        308        REACTIONS RXN-IDS=E1
        309        PARAM-MSSTR VAPOR-INLET=NO
        310
        311    BLOCK E2 RCSTR
        312        PARAM VOL=10. TEMP=25. PRES=1. MB-MAXIT=200
        313        REACTIONS RXN-IDS=E2
        314        PARAM-MSSTR VAPOR-INLET=NO
        315
        316    BLOCK B13 COMPR
        317        PARAM TYPE=ISENTROPIC DELP=0.2 SB-MAXIT=30 SB-TOL=0.0001
        318
        319    BLOCK B14 COMPR
        320        PARAM TYPE=ISENTROPIC DELP=0.2 SB-MAXIT=30 SB-TOL=0.0001
        321
        322    BLOCK B15 COMPR
        323        PARAM TYPE=ISENTROPIC PRES=0.95 SB-MAXIT=30 SB-TOL=0.0001
        324
        325    BLOCK B7 VALVE
        326        PARAM P-OUT=0.85 NPHASE=1 PHASE=V
        327        BLOCK-OPTION FREE-WATER=NO
        328
        329    BLOCK B8 VALVE
        330        PARAM P-OUT=85. <kPa> NPHASE=1 PHASE=V
        331        BLOCK-OPTION FREE-WATER=NO
        332
        333    BLOCK B9 VALVE
        334        PARAM P-OUT=90. <kPa> NPHASE=2
        335        BLOCK-OPTION FREE-WATER=NO
        336
        337    BLOCK B10 VALVE
        338        PARAM P-OUT=0.95
        339
        340    BLOCK B11 VALVE
        341        PARAM P-DROP=0.05
        342
        343    BLOCK B12 VALVE
        344        PARAM P-OUT=0.95
        345
        346    BLOCK VALVE1 VALVE
        347        PARAM P-OUT=95.556 <kPa> NPHASE=1 PHASE=L
        348        BLOCK-OPTION FREE-WATER=NO
        349
        350    EO-CONV-OPTI
        351
        352    CONV-OPTIONS
        353        PARAM TEAR-METHOD=WEGSTEIN TOL=5E-05 TRACE=1E-06
        354        WEGSTEIN MAXIT=200 QMIN=-2. QMAX=0.
        355        DIRECT MAXIT=200
        356        SECANT MAXIT=200
        357        BROYDEN MAXIT=200
        358
        359    STREAM-REPOR MOLEFLOW
        360
        361    PROPERTY-REP PCES NOPARAM-PLUS
        362
        363    REACTIONS E1 GENERAL
        364        REAC-DATA 1 NAME=E1 REAC-CLASS=POWERLAW PHASE=V  &
        365            KBASIS=MOLEFRAC CBASIS=MOLEFRAC REVERSIBLE=YES
        366        K-STOIC 1 A=-1.34025
        367        RATE-CON 1 PRE-EXP=1. ACT-ENERGY=0.
        368        STOIC 1 MIXED DT -2. / D2 1. / T2 1.
        369        DFORCE-EXP 1 MIXED DT 1. / MIXED D2 1. / MIXED T2 1.
        370        REAC-ACT 1
        371
        372    REACTIONS E2 GENERAL
        373        REAC-DATA 1 NAME=E21 REAC-CLASS=POWERLAW PHASE=V  &
        374            KBASIS=MOLEFRAC CBASIS=MOLEFRAC REVERSIBLE=YES  &
        375            REV-METH=AUTOMATIC
        376        REAC-DATA 2 NAME=E22 REAC-CLASS=POWERLAW PHASE=V  &
        377            KBASIS=MOLEFRAC CBASIS=MOLEFRAC REVERSIBLE=YES
        378        K-STOIC 1 A=-0.9439
        379        K-STOIC 2 A=0.77969
        380        RATE-CON 1 PRE-EXP=1. ACT-ENERGY=0.
        381        RATE-CON 2 PRE-EXP=1. ACT-ENERGY=0.
        382        STOIC 1 MIXED HT -2. / H2 1. / T2 1.
        383        STOIC 2 MIXED HT -1. / D2 -1. / HD 1. / DT 1.
        384        DFORCE-EXP 1 MIXED HT 1. / MIXED H2 1. / MIXED T2 1.
        385        DFORCE-EXP 2 MIXED HT 1. / MIXED D2 1. / MIXED HD 1. / &
        386            MIXED DT 1.
        387        REAC-ACT 1 / 2
        388    ;
        389    ;
        390    ;
        391    ;
        392    ;
 *** INPUT TRANSLATOR MESSAGES ***

  *** THIS RUN USES THE PROPERTIES ENTERPRISE DATABASE ***
      SQLLOCALDB.APESV140 : (DATAVERSION - 40.0.0.13)                         
      SQLLOCALDB.APV140 : (DATAVERSION - 40.0.0.13)                           
      SQLLOCALDB.FACTV140 : (DATAVERSION - 40.0.0.12)                         
      SQLLOCALDB.NISTV140 : (DATAVERSION - 40.0.0.12)                         
 
 

 PDF updated                                                                      TIME =      8.95

 *** CALCULATION TRACE ***


 *** FLOWSHEET ANALYSIS MESSAGES ***

 FLOWSHEET CONNECTIVITY BY STREAMS       

   STREAM     SOURCE     DEST           STREAM     SOURCE     DEST
   FROMTEP    ----       VALVE1         2          CD1        B8      
   3          CD1        B9             S2         VALVE1     CD1     
   S3         B8         B4             S18        B9         B6      
   S8         CD2        B7             S10        CD2        B10     
   S11        E1         B3             S5         E2         B5      
   S13        B2         B13            S9         B3         CD1     
   S14        B4         B14            S15        B5         CD3     
   S6         CD3        B11            S7         CD3        B12     
   S19        B7         B2             S17        B10        ----    
   S4         B11        ----           S16        B12        ----    
   S21        B13        E1             S23        B14        E2      
   S1         B6         B15            S12        B15        CD2     

 FLOWSHEET CONNECTIVITY BY BLOCKS        

   BLOCK        INLETS                         OUTLETS
   CD1          S9 S2                          2 3                         
   VALVE1       FROMTEP                        S2                          
   B8           2                              S3                          
   B9           3                              S18                         
   CD2          S12                            S8 S10                      
   E1           S21                            S11                         
   E2           S23                            S5                          
   B2           S19                            S13                         
   B3           S11                            S9                          
   B4           S3                             S14                         
   B5           S5                             S15                         
   CD3          S15                            S6 S7                       
   B7           S8                             S19                         
   B10          S10                            S17                         
   B11          S6                             S4                          
   B12          S7                             S16                         
   B13          S13                            S21                         
   B14          S14                            S23                         
   B6           S18                            S1                          
   B15          S1                             S12                         

      BLOCK $OLVER01 (METHOD: WEGSTEIN) HAS BEEN DEFINED TO CONVERGE
               STREAMS: S11

      COMPUTATION ORDER FOR THE FLOWSHEET IS:
      VALVE1 
      $OLVER01 B3 CD1 B9 B6 B15 CD2 B7 B2 B13 E1 
      (RETURN $OLVER01) 
      B8 B4 B14 E2 B5 CD3 B11 B12 B10 

Calculations begin                                                              time      0.38


 SIMULATION CALCULATIONS BEGIN                                                    TIME =      0.38

      ENTHALPY CALCULATION FOR INLET STREAM FROMTEP OF BLOCK VALVE1               TIME =      0.38
      KODE = 2  NTRIAL =   2  T =  23.8872  P =  100000.      V =  1.00000      Q =  0.00000    

      UOS BLOCK VALVE1   MODEL: VALVE                                             TIME =      0.39
      KODE = 1   NO. TEMP ITER =    7     TEMP =  41.5683    
      KPHASE =    2 KODE =    1 T =  41.5683     P =  95556.0     Q =  0.00000    
      OUTLET PRES =   0.9556E+05 PRES DROP =    4444.    

      CONVERGENCE BLOCK $OLVER01  METHOD: WEGSTEIN                                TIME =      0.39
      ITER   0 For Tear Streams: S11

      UOS BLOCK B3       MODEL: HEATER                                            TIME =      0.39

  *   WARNING WHILE EXECUTING UNIT OPERATIONS BLOCK: "B3" (MODEL: "HEATER")     
                                                               (UHE01.4)        
      ZERO FEED TO THE BLOCK.  BLOCK BYPASSED                                   

      UOS BLOCK CD1      MODEL: RADFRAC                                           TIME =      0.39

       Convergence iterations:
         OL   ML   IL     Err/Tol
          1    1    2      452.58    
          2    7   26      299.02    
          3    2    4      255.13    
          4    2    4      181.13    
          5    2    4      128.62    
          6    2    4      91.355    
          7    2    4      64.904    
          8    2    3      32.589    
          9    2    3      8.4013    
         10    2    3      1.5219    
         11    2    3     0.59665    

  **  ERROR WHILE EXECUTING UNIT OPERATIONS BLOCK: "CD1" (MODEL: "RADFRAC")     
                                                               (UDL03.5)        
      DESIGN SPEC IS NOT SATISFIED BECAUSE ONE OR MORE MANIPULATED              
      VARIABLE IS AT ITS BOUND.                                                 

      RESULTS FOR MANIPULATED VARIABLES:
      VARIABLE     FINAL VALUE    LOWER BOUND    UPPER BOUND
         1         0.20000        0.20000        0.80000    

      UOS BLOCK B9       MODEL: VALVE                                             TIME =      0.42
      KODE = 1  NTRIAL =   9  T =  23.5759  P =  90000.0      V = 1.142807E-02  Q =  0.00000    
      OUTLET PRES =   0.9000E+05 PRES DROP =   0.1000E+05

      UOS BLOCK B6       MODEL: HEATER                                            TIME =      0.42
      KODE = 2  NTRIAL =   2  T =  25.0000  P =  89500.0      V =  1.00000      Q =  3.83861    

      UOS BLOCK B15      MODEL: COMPR                                             TIME =      0.42
      OUTLET TEMP =   25.58       OUTLET PRES =  0.9500E+05   INDICATED HP =  0.4573E-01   BRAKE HP =  0.4573E-01
      ISENTR TEMP =   25.43      CALC ISENTR EFF =  0.7200      ISENTR HP =  0.3293E-01  HP =  0.1310E-06

      UOS BLOCK CD2      MODEL: RADFRAC                                           TIME =      0.42

       Convergence iterations:
         OL   ML   IL     Err/Tol
          1    1    2      165.07    
          2    7   16      135.40    
          3    3    8      117.45    
          4    2    5      80.122    
          5    2    4      54.359    
          6    3    5      25.216    
          7    3    4      5.7621    
          8    3    4      1.4452    
          9    3    4     0.82144    

      RESULTS FOR MANIPULATED VARIABLES:
      VARIABLE     FINAL VALUE    LOWER BOUND    UPPER BOUND
         1         0.85816        0.50000        0.99900    

      UOS BLOCK B7       MODEL: VALVE                                             TIME =      0.43
      KODE = 1   NO. TEMP ITER =    4     TEMP =  23.5362    
      KPHASE =    1 KODE =    1 T =  23.5362     P =  85000.0     Q =  0.00000    
      OUTLET PRES =   0.8500E+05 PRES DROP =    5000.    

      UOS BLOCK B2       MODEL: HEATER                                            TIME =      0.43
      KODE = 2  NTRIAL =   0  T = 298.1500  P =  80000.0      V =  1.00000      Q =  19.7181    

      UOS BLOCK B13      MODEL: COMPR                                             TIME =      0.43
      OUTLET TEMP =   325.5       OUTLET PRES =  0.1000E+06   INDICATED HP =   1.954       BRAKE HP =   1.954    
      ISENTR TEMP =   317.8      CALC ISENTR EFF =  0.7200      ISENTR HP =   1.407      HP =  0.4805E-05

      UOS BLOCK E1       MODEL: RCSTR                                             TIME =      0.43
      KODE = 2   NO. TEMP ITER =    1     TEMP =  298.150    
      KPHASE =    1 KODE =    2 T =  298.150     P =  100000.     Q = -2.08131    
      REACTOR DUTY =  -2.08131      VOLUME =  0.100000E-01  RES TIME =   163.996    
      REACTOR T =   298.150      P =   100000.      V =   1.00000    

      CONVERGENCE BLOCK $OLVER01  METHOD: WEGSTEIN                                TIME =      0.46
      ITER   1 For Tear Streams: S11

      --FLASH TEAR STREAM S11     
      KODE = 1   NO. TEMP ITER =    1     TEMP =  298.150    
      KPHASE =    1 KODE =    1 T =  298.150     P =  100000.     Q =  0.00000    

  LOOP $OLVER01 ITER    1:   6 VARS NOT CONVERGED, MAX ERR/TOL     0.10000E+07    TIME =      0.48

      UOS BLOCK B3       MODEL: HEATER                                            TIME =      0.48
      KODE = 2  NTRIAL =   2  T =  23.7700  P =  98000.0      V = 0.954141      Q = -19.8572    

      UOS BLOCK CD1      MODEL: RADFRAC                                           TIME =      0.48

       Convergence iterations:
         OL   ML   IL     Err/Tol
          1    4   13      27.138    
          2    2    4      19.061    
          3    2    3      9.6737    
          4    2    3      2.6031    
          5    2    3     0.58538    

  **  ERROR WHILE EXECUTING UNIT OPERATIONS BLOCK: "CD1" (MODEL: "RADFRAC")     
                                                               (UDL03.5)        
      DESIGN SPEC IS NOT SATISFIED BECAUSE ONE OR MORE MANIPULATED              
      VARIABLE IS AT ITS BOUND.                                                 

      RESULTS FOR MANIPULATED VARIABLES:
      VARIABLE     FINAL VALUE    LOWER BOUND    UPPER BOUND
         1         0.20000        0.20000        0.80000    

      UOS BLOCK B9       MODEL: VALVE                                             TIME =      0.52
      KODE = 1  NTRIAL =   9  T =  23.5943  P =  90000.0      V = 1.151565E-02  Q =  0.00000    
      OUTLET PRES =   0.9000E+05 PRES DROP =   0.1000E+05

      UOS BLOCK B6       MODEL: HEATER                                            TIME =      0.52
      KODE = 2  NTRIAL =   2  T =  25.0000  P =  89500.0      V =  1.00000      Q =  6.47816    

      UOS BLOCK B15      MODEL: COMPR                                             TIME =      0.52
      OUTLET TEMP =   25.58       OUTLET PRES =  0.9500E+05   INDICATED HP =  0.7713E-01   BRAKE HP =  0.7713E-01
      ISENTR TEMP =   25.43      CALC ISENTR EFF =  0.7200      ISENTR HP =  0.5553E-01  HP =  0.3727E-06

      UOS BLOCK CD2      MODEL: RADFRAC                                           TIME =      0.52

       Convergence iterations:
         OL   ML   IL     Err/Tol
          1    6   11      1.7632    
          2    3    4      1.1712    
          3    2    3     0.72851    

      RESULTS FOR MANIPULATED VARIABLES:
      VARIABLE     FINAL VALUE    LOWER BOUND    UPPER BOUND
         1         0.84899        0.50000        0.99900    

      UOS BLOCK B7       MODEL: VALVE                                             TIME =      0.55
      KODE = 1   NO. TEMP ITER =    4     TEMP =  23.5457    
      KPHASE =    1 KODE =    1 T =  23.5457     P =  85000.0     Q =  0.00000    
      OUTLET PRES =   0.8500E+05 PRES DROP =    5000.    

      UOS BLOCK B2       MODEL: HEATER                                            TIME =      0.55
      KODE = 2  NTRIAL =   0  T = 298.1500  P =  80000.0      V =  1.00000      Q =  32.8984    

      UOS BLOCK B13      MODEL: COMPR                                             TIME =      0.55
      OUTLET TEMP =   325.5       OUTLET PRES =  0.1000E+06   INDICATED HP =   3.260       BRAKE HP =   3.260    
      ISENTR TEMP =   317.8      CALC ISENTR EFF =  0.7200      ISENTR HP =   2.347      HP =  0.1338E-04

      UOS BLOCK E1       MODEL: RCSTR                                             TIME =      0.55
      KODE = 2   NO. TEMP ITER =    1     TEMP =  298.150    
      KPHASE =    1 KODE =    2 T =  298.150     P =  100000.     Q = -3.47959    
      REACTOR DUTY =  -3.47959      VOLUME =  0.100000E-01  RES TIME =   98.2894    
      REACTOR T =   298.150      P =   100000.      V =   1.00000    

      CONVERGENCE BLOCK $OLVER01  METHOD: WEGSTEIN                                TIME =      0.55
      ITER   2 For Tear Streams: S11

      --FLASH TEAR STREAM S11     
      KODE = 1   NO. TEMP ITER =    3     TEMP =  298.069    
      KPHASE =    1 KODE =    1 T =  298.069     P =  100000.     Q =  0.00000    

  LOOP $OLVER01 ITER    2:   6 VARS NOT CONVERGED, MAX ERR/TOL      20000.        TIME =      0.55

      UOS BLOCK B3       MODEL: HEATER                                            TIME =      0.56
      KODE = 2  NTRIAL =   1  T =  23.7700  P =  98000.0      V = 0.590323      Q = -61.8023    

      UOS BLOCK CD1      MODEL: RADFRAC                                           TIME =      0.56

       Convergence iterations:
         OL   ML   IL     Err/Tol
          1    4   14      21.826    
          2    2    4      15.139    
          3    2    3      7.7981    
          4    2    3      2.1430    
          5    2    3     0.50229    

  **  ERROR WHILE EXECUTING UNIT OPERATIONS BLOCK: "CD1" (MODEL: "RADFRAC")     
                                                               (UDL03.5)        
      DESIGN SPEC IS NOT SATISFIED BECAUSE ONE OR MORE MANIPULATED              
      VARIABLE IS AT ITS BOUND.                                                 

      RESULTS FOR MANIPULATED VARIABLES:
      VARIABLE     FINAL VALUE    LOWER BOUND    UPPER BOUND
         1         0.20000        0.20000        0.80000    

      UOS BLOCK B9       MODEL: VALVE                                             TIME =      0.60
      KODE = 1  NTRIAL =   9  T =  23.6416  P =  90000.0      V = 1.149315E-02  Q =  0.00000    
      OUTLET PRES =   0.9000E+05 PRES DROP =   0.1000E+05

      UOS BLOCK B6       MODEL: HEATER                                            TIME =      0.60
      KODE = 2  NTRIAL =   2  T =  25.0000  P =  89500.0      V =  1.00000      Q =  11.6202    

      UOS BLOCK B15      MODEL: COMPR                                             TIME =      0.60
      OUTLET TEMP =   25.58       OUTLET PRES =  0.9500E+05   INDICATED HP =  0.1381       BRAKE HP =  0.1381    
      ISENTR TEMP =   25.43      CALC ISENTR EFF =  0.7200      ISENTR HP =  0.9941E-01  HP =  0.1194E-05

      UOS BLOCK CD2      MODEL: RADFRAC                                           TIME =      0.60

       Convergence iterations:
         OL   ML   IL     Err/Tol
          1    6   12      4.8362    
          2    3    5      3.2966    
          3    2    3      1.7902    
          4    2    3     0.52708    

      RESULTS FOR MANIPULATED VARIABLES:
      VARIABLE     FINAL VALUE    LOWER BOUND    UPPER BOUND
         1         0.83427        0.50000        0.99900    

      UOS BLOCK B7       MODEL: VALVE                                             TIME =      0.63
      KODE = 1   NO. TEMP ITER =    4     TEMP =  23.5850    
      KPHASE =    1 KODE =    1 T =  23.5850     P =  85000.0     Q =  0.00000    
      OUTLET PRES =   0.8500E+05 PRES DROP =    5000.    

      UOS BLOCK B2       MODEL: HEATER                                            TIME =      0.63
      KODE = 2  NTRIAL =   0  T = 298.1500  P =  80000.0      V =  1.00000      Q =  57.8676    

      UOS BLOCK B13      MODEL: COMPR                                             TIME =      0.63
      OUTLET TEMP =   325.5       OUTLET PRES =  0.1000E+06   INDICATED HP =   5.735       BRAKE HP =   5.735    
      ISENTR TEMP =   317.8      CALC ISENTR EFF =  0.7200      ISENTR HP =   4.129      HP =  0.4140E-04

      UOS BLOCK E1       MODEL: RCSTR                                             TIME =      0.63
      KODE = 2   NO. TEMP ITER =    1     TEMP =  298.150    
      KPHASE =    1 KODE =    2 T =  298.150     P =  100000.     Q = -6.16080    
      REACTOR DUTY =  -6.16080      VOLUME =  0.100000E-01  RES TIME =   55.8705    
      REACTOR T =   298.150      P =   100000.      V =   1.00000    

      CONVERGENCE BLOCK $OLVER01  METHOD: WEGSTEIN                                TIME =      0.64
      ITER   3 For Tear Streams: S11

      --FLASH TEAR STREAM S11     
      KODE = 1   NO. TEMP ITER =    3     TEMP =  298.276    
      KPHASE =    1 KODE =    1 T =  298.276     P =  100000.     Q =  0.00000    

  LOOP $OLVER01 ITER    3:   6 VARS NOT CONVERGED, MAX ERR/TOL      4999.8        TIME =      0.64

      UOS BLOCK B3       MODEL: HEATER                                            TIME =      0.64
      KODE = 2  NTRIAL =   2  T =  23.7700  P =  98000.0      V = 0.475296      Q = -62.7198    

      UOS BLOCK CD1      MODEL: RADFRAC                                           TIME =      0.64

       Convergence iterations:
         OL   ML   IL     Err/Tol
          1    7   27      128.74    
          2    3   15      620.26    
          3    5   20      623.24    
          4    2    7      538.55    
          5    2    7      395.11    
          6    4   11      278.84    
          7    2    5      191.52    
          8    2    5      127.60    
          9    3    6      84.160    
         10    3    6      57.341    
         11    3    5      27.605    
         12    3    4      6.8420    
         13    3    5      1.3548    
         14    3    4      1.6796    
         15    2    3      3.4710    
         16    2    3     0.46811    

      RESULTS FOR MANIPULATED VARIABLES:
      VARIABLE     FINAL VALUE    LOWER BOUND    UPPER BOUND
         1         0.41255        0.20000        0.80000    

      UOS BLOCK B9       MODEL: VALVE                                             TIME =      0.73
      KODE = 1  NTRIAL =   9  T =  23.9049  P =  90000.0      V = 1.126767E-02  Q =  0.00000    
      OUTLET PRES =   0.9000E+05 PRES DROP =   0.1000E+05

      UOS BLOCK B6       MODEL: HEATER                                            TIME =      0.73
      KODE = 2  NTRIAL =   2  T =  25.0000  P =  89500.0      V =  1.00000      Q =  8.59888    

      UOS BLOCK B15      MODEL: COMPR                                             TIME =      0.73
      OUTLET TEMP =   25.58       OUTLET PRES =  0.9500E+05   INDICATED HP =  0.1011       BRAKE HP =  0.1011    
      ISENTR TEMP =   25.43      CALC ISENTR EFF =  0.7200      ISENTR HP =  0.7281E-01  HP =  0.6410E-06

      UOS BLOCK CD2      MODEL: RADFRAC                                           TIME =      0.73

       Convergence iterations:
         OL   ML   IL     Err/Tol
          1    7   18      23.874    
          2    3    7      20.320    
          3    3    5      13.897    
          4    2    3      6.6603    
          5    2    3      1.5815    
          6    2    3     0.36576    

      RESULTS FOR MANIPULATED VARIABLES:
      VARIABLE     FINAL VALUE    LOWER BOUND    UPPER BOUND
         1         0.74312        0.50000        0.99900    

      UOS BLOCK B7       MODEL: VALVE                                             TIME =      0.77
      KODE = 1   NO. TEMP ITER =    4     TEMP =  23.8075    
      KPHASE =    1 KODE =    1 T =  23.8075     P =  85000.0     Q =  0.00000    
      OUTLET PRES =   0.8500E+05 PRES DROP =    5000.    

      UOS BLOCK B2       MODEL: HEATER                                            TIME =      0.77
      KODE = 2  NTRIAL =   0  T = 298.1500  P =  80000.0      V =  1.00000      Q =  37.7372    

      UOS BLOCK B13      MODEL: COMPR                                             TIME =      0.77
      OUTLET TEMP =   325.5       OUTLET PRES =  0.1000E+06   INDICATED HP =   3.743       BRAKE HP =   3.743    
      ISENTR TEMP =   317.8      CALC ISENTR EFF =  0.7200      ISENTR HP =   2.695      HP =  0.1763E-04

      UOS BLOCK E1       MODEL: RCSTR                                             TIME =      0.77
      KODE = 2   NO. TEMP ITER =    1     TEMP =  298.150    
      KPHASE =    1 KODE =    2 T =  298.150     P =  100000.     Q = -4.20000    
      REACTOR DUTY =  -4.20000      VOLUME =  0.100000E-01  RES TIME =   85.6034    
      REACTOR T =   298.150      P =   100000.      V =   1.00000    

      CONVERGENCE BLOCK $OLVER01  METHOD: WEGSTEIN                                TIME =      0.78
      ITER   4 For Tear Streams: S11

      --FLASH TEAR STREAM S11     
      KODE = 1   NO. TEMP ITER =    3     TEMP =  298.122    
      KPHASE =    1 KODE =    1 T =  298.122     P =  100000.     Q =  0.00000    

  LOOP $OLVER01 ITER    4:   6 VARS NOT CONVERGED, MAX ERR/TOL     -18857.        TIME =      0.78

      UOS BLOCK B3       MODEL: HEATER                                            TIME =      0.78
      KODE = 2  NTRIAL =   2  T =  23.7700  P =  98000.0      V =  0.00000      Q = -43.6654    

      UOS BLOCK CD1      MODEL: RADFRAC                                           TIME =      0.78

       Convergence iterations:
         OL   ML   IL     Err/Tol
          1    7   26      106.44    
          2    3   10      41.494    
          3    2    5      29.614    
          4    2    5      14.512    
          5    2    4      4.1139    
          6    2    4      1.3776    
          7    2    4     0.82050    

      RESULTS FOR MANIPULATED VARIABLES:
      VARIABLE     FINAL VALUE    LOWER BOUND    UPPER BOUND
         1         0.29558        0.20000        0.80000    

      UOS BLOCK B9       MODEL: VALVE                                             TIME =      0.83
      KODE = 1  NTRIAL =   9  T =  23.9079  P =  90000.0      V = 1.128487E-02  Q =  0.00000    
      OUTLET PRES =   0.9000E+05 PRES DROP =   0.1000E+05

      UOS BLOCK B6       MODEL: HEATER                                            TIME =      0.83
      KODE = 2  NTRIAL =   2  T =  25.0000  P =  89500.0      V =  1.00000      Q =  7.89781    

      UOS BLOCK B15      MODEL: COMPR                                             TIME =      0.83
      OUTLET TEMP =   25.58       OUTLET PRES =  0.9500E+05   INDICATED HP =  0.9288E-01   BRAKE HP =  0.9288E-01
      ISENTR TEMP =   25.43      CALC ISENTR EFF =  0.7200      ISENTR HP =  0.6687E-01  HP =  0.5408E-06

      UOS BLOCK CD2      MODEL: RADFRAC                                           TIME =      0.83

       Convergence iterations:
         OL   ML   IL     Err/Tol
          1    6   10     0.87543    

      RESULTS FOR MANIPULATED VARIABLES:
      VARIABLE     FINAL VALUE    LOWER BOUND    UPPER BOUND
         1         0.72771        0.50000        0.99900    

      UOS BLOCK B7       MODEL: VALVE                                             TIME =      0.85
      KODE = 1   NO. TEMP ITER =    4     TEMP =  23.8079    
      KPHASE =    1 KODE =    1 T =  23.8079     P =  85000.0     Q =  0.00000    
      OUTLET PRES =   0.8500E+05 PRES DROP =    5000.    

      UOS BLOCK B2       MODEL: HEATER                                            TIME =      0.85
      KODE = 2  NTRIAL =   0  T = 298.1500  P =  80000.0      V =  1.00000      Q =  33.9411    

      UOS BLOCK B13      MODEL: COMPR                                             TIME =      0.85
      OUTLET TEMP =   325.5       OUTLET PRES =  0.1000E+06   INDICATED HP =   3.367       BRAKE HP =   3.367    
      ISENTR TEMP =   317.8      CALC ISENTR EFF =  0.7200      ISENTR HP =   2.424      HP =  0.1426E-04

      UOS BLOCK E1       MODEL: RCSTR                                             TIME =      0.85
      KODE = 2   NO. TEMP ITER =    1     TEMP =  298.150    
      KPHASE =    1 KODE =    2 T =  298.150     P =  100000.     Q = -3.77592    
      REACTOR DUTY =  -3.77592      VOLUME =  0.100000E-01  RES TIME =   95.1776    
      REACTOR T =   298.150      P =   100000.      V =   1.00000    

      CONVERGENCE BLOCK $OLVER01  METHOD: WEGSTEIN                                TIME =      0.85
      ITER   5 For Tear Streams: S11

      --FLASH TEAR STREAM S11     
      KODE = 1   NO. TEMP ITER =    3     TEMP =  298.210    
      KPHASE =    1 KODE =    1 T =  298.210     P =  100000.     Q =  0.00000    

  LOOP $OLVER01 ITER    5:   6 VARS NOT CONVERGED, MAX ERR/TOL     -16500.        TIME =      0.86

      UOS BLOCK B3       MODEL: HEATER                                            TIME =      0.86
      KODE = 2  NTRIAL =   2  T =  23.7700  P =  98000.0      V =  0.00000      Q = -38.8747    

      UOS BLOCK CD1      MODEL: RADFRAC                                           TIME =      0.86

       Convergence iterations:
         OL   ML   IL     Err/Tol
          1   10   45      85.311    
          2    4   13      59.455    
          3    3    6      39.450    
          4    2    3      19.178    
          5    2    3      4.9053    
          6    2    3      1.3563    
          7    2    4     0.70530    

      RESULTS FOR MANIPULATED VARIABLES:
      VARIABLE     FINAL VALUE    LOWER BOUND    UPPER BOUND
         1         0.28085        0.20000        0.80000    

      UOS BLOCK B9       MODEL: VALVE                                             TIME =      0.91
      KODE = 1  NTRIAL =   9  T =  23.9068  P =  90000.0      V = 1.129873E-02  Q =  0.00000    
      OUTLET PRES =   0.9000E+05 PRES DROP =   0.1000E+05

      UOS BLOCK B6       MODEL: HEATER                                            TIME =      0.91
      KODE = 2  NTRIAL =   2  T =  25.0000  P =  89500.0      V =  1.00000      Q =  7.56030    

      UOS BLOCK B15      MODEL: COMPR                                             TIME =      0.91
      OUTLET TEMP =   25.58       OUTLET PRES =  0.9500E+05   INDICATED HP =  0.8891E-01   BRAKE HP =  0.8891E-01
      ISENTR TEMP =   25.43      CALC ISENTR EFF =  0.7200      ISENTR HP =  0.6402E-01  HP =  0.4956E-06

      UOS BLOCK CD2      MODEL: RADFRAC                                           TIME =      0.91

       Convergence iterations:
         OL   ML   IL     Err/Tol
          1    5    9     0.44197    

      RESULTS FOR MANIPULATED VARIABLES:
      VARIABLE     FINAL VALUE    LOWER BOUND    UPPER BOUND
         1         0.73427        0.50000        0.99900    

      UOS BLOCK B7       MODEL: VALVE                                             TIME =      0.93
      KODE = 1   NO. TEMP ITER =    4     TEMP =  23.8081    
      KPHASE =    1 KODE =    1 T =  23.8081     P =  85000.0     Q =  0.00000    
      OUTLET PRES =   0.8500E+05 PRES DROP =    5000.    

      UOS BLOCK B2       MODEL: HEATER                                            TIME =      0.93
      KODE = 2  NTRIAL =   0  T = 298.1500  P =  80000.0      V =  1.00000      Q =  32.7844    

      UOS BLOCK B13      MODEL: COMPR                                             TIME =      0.93
      OUTLET TEMP =   325.5       OUTLET PRES =  0.1000E+06   INDICATED HP =   3.252       BRAKE HP =   3.252    
      ISENTR TEMP =   317.8      CALC ISENTR EFF =  0.7200      ISENTR HP =   2.341      HP =  0.1331E-04

      UOS BLOCK E1       MODEL: RCSTR                                             TIME =      0.93
      KODE = 2   NO. TEMP ITER =    1     TEMP =  298.150    
      KPHASE =    1 KODE =    2 T =  298.150     P =  100000.     Q = -3.64719    
      REACTOR DUTY =  -3.64719      VOLUME =  0.100000E-01  RES TIME =   98.5355    
      REACTOR T =   298.150      P =   100000.      V =   1.00000    

      CONVERGENCE BLOCK $OLVER01  METHOD: WEGSTEIN                                TIME =      0.94
      ITER   6 For Tear Streams: S11

      --FLASH TEAR STREAM S11     
      KODE = 1   NO. TEMP ITER =    3     TEMP =  298.112    
      KPHASE =    1 KODE =    1 T =  298.112     P =  100000.     Q =  0.00000    

  LOOP $OLVER01 ITER    6:   5 VARS NOT CONVERGED, MAX ERR/TOL     -678.10        TIME =      0.94

      UOS BLOCK B3       MODEL: HEATER                                            TIME =      0.94
      KODE = 2  NTRIAL =   2  T =  23.7700  P =  98000.0      V =  0.00000      Q = -37.7836    

      UOS BLOCK CD1      MODEL: RADFRAC                                           TIME =      0.94

       Convergence iterations:
         OL   ML   IL     Err/Tol
          1    4   13      2.6209    
          2    3    6      1.0974    
          3    2    3     0.70355    

      RESULTS FOR MANIPULATED VARIABLES:
      VARIABLE     FINAL VALUE    LOWER BOUND    UPPER BOUND
         1         0.28153        0.20000        0.80000    

      UOS BLOCK B9       MODEL: VALVE                                             TIME =      0.97
      KODE = 1  NTRIAL =   9  T =  23.9052  P =  90000.0      V = 1.131461E-02  Q =  0.00000    
      OUTLET PRES =   0.9000E+05 PRES DROP =   0.1000E+05

      UOS BLOCK B6       MODEL: HEATER                                            TIME =      0.97
      KODE = 2  NTRIAL =   2  T =  25.0000  P =  89500.0      V =  1.00000      Q =  7.44010    

      UOS BLOCK B15      MODEL: COMPR                                             TIME =      0.97
      OUTLET TEMP =   25.58       OUTLET PRES =  0.9500E+05   INDICATED HP =  0.8750E-01   BRAKE HP =  0.8750E-01
      ISENTR TEMP =   25.43      CALC ISENTR EFF =  0.7200      ISENTR HP =  0.6300E-01  HP =  0.4799E-06

      UOS BLOCK CD2      MODEL: RADFRAC                                           TIME =      0.97

       Convergence iterations:
         OL   ML   IL     Err/Tol
          1    5    8     0.40649    

      RESULTS FOR MANIPULATED VARIABLES:
      VARIABLE     FINAL VALUE    LOWER BOUND    UPPER BOUND
         1         0.74288        0.50000        0.99900    

      UOS BLOCK B7       MODEL: VALVE                                             TIME =      0.99
      KODE = 1   NO. TEMP ITER =    4     TEMP =  23.8082    
      KPHASE =    1 KODE =    1 T =  23.8082     P =  85000.0     Q =  0.00000    
      OUTLET PRES =   0.8500E+05 PRES DROP =    5000.    

      UOS BLOCK B2       MODEL: HEATER                                            TIME =      0.99
      KODE = 2  NTRIAL =   0  T = 298.1500  P =  80000.0      V =  1.00000      Q =  32.6421    

      UOS BLOCK B13      MODEL: COMPR                                             TIME =      0.99
      OUTLET TEMP =   325.5       OUTLET PRES =  0.1000E+06   INDICATED HP =   3.238       BRAKE HP =   3.238    
      ISENTR TEMP =   317.8      CALC ISENTR EFF =  0.7200      ISENTR HP =   2.331      HP =  0.1319E-04

      UOS BLOCK E1       MODEL: RCSTR                                             TIME =      0.99
      KODE = 2   NO. TEMP ITER =    1     TEMP =  298.150    
      KPHASE =    1 KODE =    2 T =  298.150     P =  100000.     Q = -3.63261    
      REACTOR DUTY =  -3.63261      VOLUME =  0.100000E-01  RES TIME =   98.9649    
      REACTOR T =   298.150      P =   100000.      V =   1.00000    

      CONVERGENCE BLOCK $OLVER01  METHOD: WEGSTEIN                                TIME =      0.99
      ITER   7 For Tear Streams: S11

      --FLASH TEAR STREAM S11     
      KODE = 1   NO. TEMP ITER =    3     TEMP =  298.162    
      KPHASE =    1 KODE =    1 T =  298.162     P =  100000.     Q =  0.00000    

  LOOP $OLVER01 ITER    7:   5 VARS NOT CONVERGED, MAX ERR/TOL      316.28        TIME =      0.99

      UOS BLOCK B3       MODEL: HEATER                                            TIME =      1.00
      KODE = 2  NTRIAL =   2  T =  23.7700  P =  98000.0      V =  0.00000      Q = -37.9477    

      UOS BLOCK CD1      MODEL: RADFRAC                                           TIME =      1.00

       Convergence iterations:
         OL   ML   IL     Err/Tol
          1    4   10     0.71334    

      RESULTS FOR MANIPULATED VARIABLES:
      VARIABLE     FINAL VALUE    LOWER BOUND    UPPER BOUND
         1         0.28174        0.20000        0.80000    

      UOS BLOCK B9       MODEL: VALVE                                             TIME =      1.02
      KODE = 1  NTRIAL =   9  T =  23.9059  P =  90000.0      V = 1.129291E-02  Q =  0.00000    
      OUTLET PRES =   0.9000E+05 PRES DROP =   0.1000E+05

      UOS BLOCK B6       MODEL: HEATER                                            TIME =      1.02
      KODE = 2  NTRIAL =   2  T =  25.0000  P =  89500.0      V =  1.00000      Q =  7.45467    

      UOS BLOCK B15      MODEL: COMPR                                             TIME =      1.02
      OUTLET TEMP =   25.58       OUTLET PRES =  0.9500E+05   INDICATED HP =  0.8767E-01   BRAKE HP =  0.8767E-01
      ISENTR TEMP =   25.43      CALC ISENTR EFF =  0.7200      ISENTR HP =  0.6312E-01  HP =  0.4818E-06

      UOS BLOCK CD2      MODEL: RADFRAC                                           TIME =      1.02

       Convergence iterations:
         OL   ML   IL     Err/Tol
          1    5    8     0.19658    

      RESULTS FOR MANIPULATED VARIABLES:
      VARIABLE     FINAL VALUE    LOWER BOUND    UPPER BOUND
         1         0.73861        0.50000        0.99900    

      UOS BLOCK B7       MODEL: VALVE                                             TIME =      1.03
      KODE = 1   NO. TEMP ITER =    4     TEMP =  23.8082    
      KPHASE =    1 KODE =    1 T =  23.8082     P =  85000.0     Q =  0.00000    
      OUTLET PRES =   0.8500E+05 PRES DROP =    5000.    

      UOS BLOCK B2       MODEL: HEATER                                            TIME =      1.03
      KODE = 2  NTRIAL =   0  T = 298.1500  P =  80000.0      V =  1.00000      Q =  32.5172    

      UOS BLOCK B13      MODEL: COMPR                                             TIME =      1.03
      OUTLET TEMP =   325.5       OUTLET PRES =  0.1000E+06   INDICATED HP =   3.225       BRAKE HP =   3.225    
      ISENTR TEMP =   317.8      CALC ISENTR EFF =  0.7200      ISENTR HP =   2.322      HP =  0.1309E-04

      UOS BLOCK E1       MODEL: RCSTR                                             TIME =      1.03
      KODE = 2   NO. TEMP ITER =    1     TEMP =  298.150    
      KPHASE =    1 KODE =    2 T =  298.150     P =  100000.     Q = -3.61870    
      REACTOR DUTY =  -3.61870      VOLUME =  0.100000E-01  RES TIME =   99.3451    
      REACTOR T =   298.150      P =   100000.      V =   1.00000    

      CONVERGENCE BLOCK $OLVER01  METHOD: WEGSTEIN                                TIME =      1.03
      ITER   8 For Tear Streams: S11

      --FLASH TEAR STREAM S11     
      KODE = 1   NO. TEMP ITER =    3     TEMP =  298.149    
      KPHASE =    1 KODE =    1 T =  298.149     P =  100000.     Q =  0.00000    

  LOOP $OLVER01 ITER    8:   4 VARS NOT CONVERGED, MAX ERR/TOL     -117.68        TIME =      1.03

      UOS BLOCK B3       MODEL: HEATER                                            TIME =      1.04
      KODE = 2  NTRIAL =   2  T =  23.7700  P =  98000.0      V =  0.00000      Q = -37.8535    

      UOS BLOCK CD1      MODEL: RADFRAC                                           TIME =      1.04

       Convergence iterations:
         OL   ML   IL     Err/Tol
          1    4    9     0.22108    

      RESULTS FOR MANIPULATED VARIABLES:
      VARIABLE     FINAL VALUE    LOWER BOUND    UPPER BOUND
         1         0.28167        0.20000        0.80000    

      UOS BLOCK B9       MODEL: VALVE                                             TIME =      1.05
      KODE = 1  NTRIAL =   9  T =  23.9057  P =  90000.0      V = 1.129893E-02  Q =  0.00000    
      OUTLET PRES =   0.9000E+05 PRES DROP =   0.1000E+05

      UOS BLOCK B6       MODEL: HEATER                                            TIME =      1.05
      KODE = 2  NTRIAL =   2  T =  25.0000  P =  89500.0      V =  1.00000      Q =  7.44558    

      UOS BLOCK B15      MODEL: COMPR                                             TIME =      1.05
      OUTLET TEMP =   25.58       OUTLET PRES =  0.9500E+05   INDICATED HP =  0.8756E-01   BRAKE HP =  0.8756E-01
      ISENTR TEMP =   25.43      CALC ISENTR EFF =  0.7200      ISENTR HP =  0.6304E-01  HP =  0.4806E-06

      UOS BLOCK CD2      MODEL: RADFRAC                                           TIME =      1.05

       Convergence iterations:
         OL   ML   IL     Err/Tol
          1    5    7     0.68045E-01

      RESULTS FOR MANIPULATED VARIABLES:
      VARIABLE     FINAL VALUE    LOWER BOUND    UPPER BOUND
         1         0.73989        0.50000        0.99900    

      UOS BLOCK B7       MODEL: VALVE                                             TIME =      1.06
      KODE = 1   NO. TEMP ITER =    4     TEMP =  23.8083    
      KPHASE =    1 KODE =    1 T =  23.8083     P =  85000.0     Q =  0.00000    
      OUTLET PRES =   0.8500E+05 PRES DROP =    5000.    

      UOS BLOCK B2       MODEL: HEATER                                            TIME =      1.06
      KODE = 2  NTRIAL =   0  T = 298.1500  P =  80000.0      V =  1.00000      Q =  32.5341    

      UOS BLOCK B13      MODEL: COMPR                                             TIME =      1.06
      OUTLET TEMP =   325.5       OUTLET PRES =  0.1000E+06   INDICATED HP =   3.227       BRAKE HP =   3.227    
      ISENTR TEMP =   317.8      CALC ISENTR EFF =  0.7200      ISENTR HP =   2.324      HP =  0.1311E-04

      UOS BLOCK E1       MODEL: RCSTR                                             TIME =      1.06
      KODE = 2   NO. TEMP ITER =    1     TEMP =  298.150    
      KPHASE =    1 KODE =    2 T =  298.150     P =  100000.     Q = -3.62049    
      REACTOR DUTY =  -3.62049      VOLUME =  0.100000E-01  RES TIME =   99.2937    
      REACTOR T =   298.150      P =   100000.      V =   1.00000    

      CONVERGENCE BLOCK $OLVER01  METHOD: WEGSTEIN                                TIME =      1.07
      ITER   9 For Tear Streams: S11

      --FLASH TEAR STREAM S11     
      KODE = 1   NO. TEMP ITER =    3     TEMP =  298.149    
      KPHASE =    1 KODE =    1 T =  298.149     P =  100000.     Q =  0.00000    

  LOOP $OLVER01 ITER    9:   4 VARS NOT CONVERGED, MAX ERR/TOL      13.775        TIME =      1.07

      UOS BLOCK B3       MODEL: HEATER                                            TIME =      1.07
      KODE = 2  NTRIAL =   2  T =  23.7700  P =  98000.0      V =  0.00000      Q = -37.8751    

      UOS BLOCK CD1      MODEL: RADFRAC                                           TIME =      1.07

       Convergence iterations:
         OL   ML   IL     Err/Tol
          1    4    9     0.16991    

      RESULTS FOR MANIPULATED VARIABLES:
      VARIABLE     FINAL VALUE    LOWER BOUND    UPPER BOUND
         1         0.28163        0.20000        0.80000    

      UOS BLOCK B9       MODEL: VALVE                                             TIME =      1.08
      KODE = 1  NTRIAL =   9  T =  23.9057  P =  90000.0      V = 1.129834E-02  Q =  0.00000    
      OUTLET PRES =   0.9000E+05 PRES DROP =   0.1000E+05

      UOS BLOCK B6       MODEL: HEATER                                            TIME =      1.08
      KODE = 2  NTRIAL =   2  T =  25.0000  P =  89500.0      V =  1.00000      Q =  7.44835    

      UOS BLOCK B15      MODEL: COMPR                                             TIME =      1.08
      OUTLET TEMP =   25.58       OUTLET PRES =  0.9500E+05   INDICATED HP =  0.8759E-01   BRAKE HP =  0.8759E-01
      ISENTR TEMP =   25.43      CALC ISENTR EFF =  0.7200      ISENTR HP =  0.6307E-01  HP =  0.4810E-06

      UOS BLOCK CD2      MODEL: RADFRAC                                           TIME =      1.08

       Convergence iterations:
         OL   ML   IL     Err/Tol
          1    5    7     0.25711E-01

      RESULTS FOR MANIPULATED VARIABLES:
      VARIABLE     FINAL VALUE    LOWER BOUND    UPPER BOUND
         1         0.73978        0.50000        0.99900    

      UOS BLOCK B7       MODEL: VALVE                                             TIME =      1.09
      KODE = 1   NO. TEMP ITER =    4     TEMP =  23.8083    
      KPHASE =    1 KODE =    1 T =  23.8083     P =  85000.0     Q =  0.00000    
      OUTLET PRES =   0.8500E+05 PRES DROP =    5000.    

      UOS BLOCK B2       MODEL: HEATER                                            TIME =      1.09
      KODE = 2  NTRIAL =   0  T = 298.1500  P =  80000.0      V =  1.00000      Q =  32.5417    

      UOS BLOCK B13      MODEL: COMPR                                             TIME =      1.09
      OUTLET TEMP =   325.5       OUTLET PRES =  0.1000E+06   INDICATED HP =   3.228       BRAKE HP =   3.228    
      ISENTR TEMP =   317.8      CALC ISENTR EFF =  0.7200      ISENTR HP =   2.324      HP =  0.1311E-04

      UOS BLOCK E1       MODEL: RCSTR                                             TIME =      1.09
      KODE = 2   NO. TEMP ITER =    1     TEMP =  298.150    
      KPHASE =    1 KODE =    2 T =  298.150     P =  100000.     Q = -3.62139    
      REACTOR DUTY =  -3.62139      VOLUME =  0.100000E-01  RES TIME =   99.2705    
      REACTOR T =   298.150      P =   100000.      V =   1.00000    

      CONVERGENCE BLOCK $OLVER01  METHOD: WEGSTEIN                                TIME =      1.09
      ITER  10 For Tear Streams: S11

      --FLASH TEAR STREAM S11     
      KODE = 1   NO. TEMP ITER =    3     TEMP =  298.150    
      KPHASE =    1 KODE =    1 T =  298.150     P =  100000.     Q =  0.00000    

  LOOP $OLVER01 ITER   10:   3 VARS NOT CONVERGED, MAX ERR/TOL      7.5935        TIME =      1.09

      UOS BLOCK B3       MODEL: HEATER                                            TIME =      1.09
      KODE = 2  NTRIAL =   2  T =  23.7700  P =  98000.0      V =  0.00000      Q = -37.8750    

      UOS BLOCK CD1      MODEL: RADFRAC                                           TIME =      1.09

       Convergence iterations:
         OL   ML   IL     Err/Tol
          1    4    9     0.13649    

      RESULTS FOR MANIPULATED VARIABLES:
      VARIABLE     FINAL VALUE    LOWER BOUND    UPPER BOUND
         1         0.28167        0.20000        0.80000    

      UOS BLOCK B9       MODEL: VALVE                                             TIME =      1.10
      KODE = 1  NTRIAL =   9  T =  23.9057  P =  90000.0      V = 1.129785E-02  Q =  0.00000    
      OUTLET PRES =   0.9000E+05 PRES DROP =   0.1000E+05

      UOS BLOCK B6       MODEL: HEATER                                            TIME =      1.10
      KODE = 2  NTRIAL =   2  T =  25.0000  P =  89500.0      V =  1.00000      Q =  7.44789    

      UOS BLOCK B15      MODEL: COMPR                                             TIME =      1.10
      OUTLET TEMP =   25.58       OUTLET PRES =  0.9500E+05   INDICATED HP =  0.8759E-01   BRAKE HP =  0.8759E-01
      ISENTR TEMP =   25.43      CALC ISENTR EFF =  0.7200      ISENTR HP =  0.6306E-01  HP =  0.4809E-06

      UOS BLOCK CD2      MODEL: RADFRAC                                           TIME =      1.10

       Convergence iterations:
         OL   ML   IL     Err/Tol
          1    5    7     0.17060E-01

      RESULTS FOR MANIPULATED VARIABLES:
      VARIABLE     FINAL VALUE    LOWER BOUND    UPPER BOUND
         1         0.73973        0.50000        0.99900    

      UOS BLOCK B7       MODEL: VALVE                                             TIME =      1.12
      KODE = 1   NO. TEMP ITER =    4     TEMP =  23.8083    
      KPHASE =    1 KODE =    1 T =  23.8083     P =  85000.0     Q =  0.00000    
      OUTLET PRES =   0.8500E+05 PRES DROP =    5000.    

      UOS BLOCK B2       MODEL: HEATER                                            TIME =      1.12
      KODE = 2  NTRIAL =   0  T = 298.1500  P =  80000.0      V =  1.00000      Q =  32.5372    

      UOS BLOCK B13      MODEL: COMPR                                             TIME =      1.12
      OUTLET TEMP =   325.5       OUTLET PRES =  0.1000E+06   INDICATED HP =   3.227       BRAKE HP =   3.227    
      ISENTR TEMP =   317.8      CALC ISENTR EFF =  0.7200      ISENTR HP =   2.324      HP =  0.1311E-04

      UOS BLOCK E1       MODEL: RCSTR                                             TIME =      1.12
      KODE = 2   NO. TEMP ITER =    1     TEMP =  298.150    
      KPHASE =    1 KODE =    2 T =  298.150     P =  100000.     Q = -3.62088    
      REACTOR DUTY =  -3.62088      VOLUME =  0.100000E-01  RES TIME =   99.2842    
      REACTOR T =   298.150      P =   100000.      V =   1.00000    

      CONVERGENCE BLOCK $OLVER01  METHOD: WEGSTEIN                                TIME =      1.13
      ITER  11 For Tear Streams: S11

      --FLASH TEAR STREAM S11     
      KODE = 1   NO. TEMP ITER =    3     TEMP =  298.150    
      KPHASE =    1 KODE =    1 T =  298.150     P =  100000.     Q =  0.00000    

  LOOP $OLVER01 ITER   11:   3 VARS NOT CONVERGED, MAX ERR/TOL     -3.3305        TIME =      1.13

      UOS BLOCK B3       MODEL: HEATER                                            TIME =      1.13
      KODE = 2  NTRIAL =   2  T =  23.7700  P =  98000.0      V =  0.00000      Q = -37.8706    

      UOS BLOCK CD1      MODEL: RADFRAC                                           TIME =      1.13

       Convergence iterations:
         OL   ML   IL     Err/Tol
          1    4    8     0.43073E-01

      RESULTS FOR MANIPULATED VARIABLES:
      VARIABLE     FINAL VALUE    LOWER BOUND    UPPER BOUND
         1         0.28166        0.20000        0.80000    

      UOS BLOCK B9       MODEL: VALVE                                             TIME =      1.15
      KODE = 1  NTRIAL =   9  T =  23.9057  P =  90000.0      V = 1.129783E-02  Q =  0.00000    
      OUTLET PRES =   0.9000E+05 PRES DROP =   0.1000E+05

      UOS BLOCK B6       MODEL: HEATER                                            TIME =      1.15
      KODE = 2  NTRIAL =   2  T =  25.0000  P =  89500.0      V =  1.00000      Q =  7.44747    

      UOS BLOCK B15      MODEL: COMPR                                             TIME =      1.15
      OUTLET TEMP =   25.58       OUTLET PRES =  0.9500E+05   INDICATED HP =  0.8758E-01   BRAKE HP =  0.8758E-01
      ISENTR TEMP =   25.43      CALC ISENTR EFF =  0.7200      ISENTR HP =  0.6306E-01  HP =  0.4809E-06

      UOS BLOCK CD2      MODEL: RADFRAC                                           TIME =      1.15

       Convergence iterations:
         OL   ML   IL     Err/Tol
          1    5    7     0.11480E-01

      RESULTS FOR MANIPULATED VARIABLES:
      VARIABLE     FINAL VALUE    LOWER BOUND    UPPER BOUND
         1         0.73975        0.50000        0.99900    

      UOS BLOCK B7       MODEL: VALVE                                             TIME =      1.17
      KODE = 1   NO. TEMP ITER =    4     TEMP =  23.8083    
      KPHASE =    1 KODE =    1 T =  23.8083     P =  85000.0     Q =  0.00000    
      OUTLET PRES =   0.8500E+05 PRES DROP =    5000.    

      UOS BLOCK B2       MODEL: HEATER                                            TIME =      1.17
      KODE = 2  NTRIAL =   0  T = 298.1500  P =  80000.0      V =  1.00000      Q =  32.5361    

      UOS BLOCK B13      MODEL: COMPR                                             TIME =      1.17
      OUTLET TEMP =   325.5       OUTLET PRES =  0.1000E+06   INDICATED HP =   3.227       BRAKE HP =   3.227    
      ISENTR TEMP =   317.8      CALC ISENTR EFF =  0.7200      ISENTR HP =   2.324      HP =  0.1311E-04

      UOS BLOCK E1       MODEL: RCSTR                                             TIME =      1.17
      KODE = 2   NO. TEMP ITER =    1     TEMP =  298.150    
      KPHASE =    1 KODE =    2 T =  298.150     P =  100000.     Q = -3.62077    
      REACTOR DUTY =  -3.62077      VOLUME =  0.100000E-01  RES TIME =   99.2873    
      REACTOR T =   298.150      P =   100000.      V =   1.00000    

      CONVERGENCE BLOCK $OLVER01  METHOD: WEGSTEIN                                TIME =      1.17
      ITER  12 For Tear Streams: S11

  LOOP $OLVER01 ITER   12:     *** CONVERGED *** , MAX ERR/TOL    -0.68743        TIME =      1.17

      UOS BLOCK B8       MODEL: VALVE                                             TIME =      1.17
      KODE = 1   NO. TEMP ITER =    4     TEMP =  22.5782    
      KPHASE =    1 KODE =    1 T =  22.5782     P =  85000.0     Q =  0.00000    
      OUTLET PRES =   0.8500E+05 PRES DROP =    5000.    

      UOS BLOCK B4       MODEL: HEATER                                            TIME =      1.17
      KODE = 2  NTRIAL =   0  T = 298.1500  P =  80000.0      V =  1.00000      Q =  17.3251    

      UOS BLOCK B14      MODEL: COMPR                                             TIME =      1.17
      OUTLET TEMP =   325.5       OUTLET PRES =  0.1000E+06   INDICATED HP =   1.711       BRAKE HP =   1.711    
      ISENTR TEMP =   317.8      CALC ISENTR EFF =  0.7200      ISENTR HP =   1.232      HP =  0.3683E-05

      UOS BLOCK E2       MODEL: RCSTR                                             TIME =      1.17
      KODE = 2   NO. TEMP ITER =    1     TEMP =  298.150    
      KPHASE =    1 KODE =    2 T =  298.150     P =  100000.     Q = -1.70915    
      REACTOR DUTY =  -1.70915      VOLUME =  0.100000E-01  RES TIME =   187.311    
      REACTOR T =   298.150      P =   100000.      V =   1.00000    

      UOS BLOCK B5       MODEL: HEATER                                            TIME =      1.17
      KODE = 2  NTRIAL =   2  T =  23.7700  P =  99152.6      V =  1.00000      Q = -17.2567    

      UOS BLOCK CD3      MODEL: RADFRAC                                           TIME =      1.17

       Convergence iterations:
         OL   ML   IL     Err/Tol
          1    1    6      127.13    
          2    7   19      93.223    
          3    5   16      84.886    
          4    5   15      81.007    
          5    5   16      81.006    
          6    3    8      71.834    
          7    2    5      50.673    
          8    2    4      25.535    
          9    2    3      6.5891    
         10    2    3      1.0042    
         11    2    4     0.22731    

      RESULTS FOR MANIPULATED VARIABLES:
      VARIABLE     FINAL VALUE    LOWER BOUND    UPPER BOUND
         1         0.14926E-01    0.10000E-04    0.99000    

      UOS BLOCK B11      MODEL: VALVE                                             TIME =      1.21
      NO. TEMP ITER =    4     TEMP =  21.8587    
      KODE = 1  NTRIAL =   2  T =  21.8587  P =  75000.0      V =  1.00000      Q =  0.00000    
      OUTLET PRES =   0.7500E+05 PRES DROP =    5000.    

      UOS BLOCK B12      MODEL: VALVE                                             TIME =      1.22
      KODE = 1  NTRIAL =   8  T =  22.8019  P =  95000.0      V = 5.907997E-03  Q =  0.00000    
      OUTLET PRES =   0.9500E+05 PRES DROP =    5000.    

      UOS BLOCK B10      MODEL: VALVE                                             TIME =      1.22
      KODE = 1  NTRIAL =   8  T =  24.2146  P =  95000.0      V = 5.521152E-03  Q =  0.00000    
      OUTLET PRES =   0.9500E+05 PRES DROP =    5000.    

      GENERATING RESULTS FOR UOS BLOCK B2       MODEL: HEATER                     TIME =      1.22

      GENERATING RESULTS FOR UOS BLOCK B3       MODEL: HEATER                     TIME =      1.22

      GENERATING RESULTS FOR UOS BLOCK B4       MODEL: HEATER                     TIME =      1.22

      GENERATING RESULTS FOR UOS BLOCK B5       MODEL: HEATER                     TIME =      1.22

      GENERATING RESULTS FOR UOS BLOCK B6       MODEL: HEATER                     TIME =      1.22

      CHECKING PHASE EQUILIBRIUM RESULTS                                          TIME =      1.22

      CHECKING PHASE EQUILIBRIUM RESULTS                                          TIME =      1.22


*** INPUT SPECIFICATION MESSAGES ***

 CHANGES WERE MADE TO STREAM       FROMTEP  08/18/2025   13:37:43:09 
 STREAM FROMTEP
     SUBSTREAM MIXED TEMP=23.8872 <K> PRES=100. <kPa>  &
         MOLE-FLOW=17.803438606 <mol/hr>
     MOLE-FRAC H2 5.7177994E-06 / HD 0.00286067764 / HT  &
         0.00191027084 / D2 0.35780708807 / DT 0.47786471016 /  &
         T2 0.15955153547

 PDF updated                                                                      TIME =      3.04
 THIS COPY OF ASPEN PLUS LICENSED TO                                 

      CHECKING PHASE EQUILIBRIUM RESULTS                                          TIME =      3.04


Calculations begin                                                              time      3.05


      ENTHALPY CALCULATION FOR INLET STREAM FROMTEP OF BLOCK VALVE1               TIME =      3.05
      KODE = 2  NTRIAL =   2  T =  23.8872  P =  100000.      V =  1.00000      Q =  0.00000    

      UOS BLOCK VALVE1   MODEL: VALVE                                             TIME =      3.05
      KODE = 1   NO. TEMP ITER =    7     TEMP =  41.5683    
      KPHASE =    2 KODE =    1 T =  41.5683     P =  95556.0     Q =  0.00000    
      OUTLET PRES =   0.9556E+05 PRES DROP =    4444.    

      CONVERGENCE BLOCK $OLVER01  METHOD: WEGSTEIN                                TIME =      3.05
      ITER   0 For Tear Streams: S11

      UOS BLOCK B3       MODEL: HEATER                                            TIME =      3.05
      KODE = 2  NTRIAL =   2  T =  23.7700  P =  98000.0      V =  0.00000      Q = -37.8706    

      UOS BLOCK CD1      MODEL: RADFRAC                                           TIME =      3.05

       Convergence iterations:
         OL   ML   IL     Err/Tol
          1    7   33      225.35    
          2    5   16      115.71    
          3    4   12      14.156    
          4    2    5      4.8596    
          5    2    4      3.1529    
          6    2    3      1.3548    
          7    2    3     0.38703    

      RESULTS FOR MANIPULATED VARIABLES:
      VARIABLE     FINAL VALUE    LOWER BOUND    UPPER BOUND
         1         0.29501        0.20000        0.80000    

      UOS BLOCK B9       MODEL: VALVE                                             TIME =      3.05
      KODE = 1  NTRIAL =   9  T =  23.9033  P =  90000.0      V = 1.130605E-02  Q =  0.00000    
      OUTLET PRES =   0.9000E+05 PRES DROP =   0.1000E+05

      UOS BLOCK B6       MODEL: HEATER                                            TIME =      3.05
      KODE = 2  NTRIAL =   2  T =  25.0000  P =  89500.0      V =  1.00000      Q =  8.61290    

      UOS BLOCK B15      MODEL: COMPR                                             TIME =      3.05
      OUTLET TEMP =   25.58       OUTLET PRES =  0.9500E+05   INDICATED HP =  0.1013       BRAKE HP =  0.1013    
      ISENTR TEMP =   25.43      CALC ISENTR EFF =  0.7200      ISENTR HP =  0.7293E-01  HP =  0.6432E-06

      UOS BLOCK CD2      MODEL: RADFRAC                                           TIME =      3.05

       Convergence iterations:
         OL   ML   IL     Err/Tol
          1    6   10     0.69092    

      RESULTS FOR MANIPULATED VARIABLES:
      VARIABLE     FINAL VALUE    LOWER BOUND    UPPER BOUND
         1         0.75276        0.50000        0.99900    

      UOS BLOCK B7       MODEL: VALVE                                             TIME =      3.06
      KODE = 1   NO. TEMP ITER =    4     TEMP =  23.8082    
      KPHASE =    1 KODE =    1 T =  23.8082     P =  85000.0     Q =  0.00000    
      OUTLET PRES =   0.8500E+05 PRES DROP =    5000.    

      UOS BLOCK B2       MODEL: HEATER                                            TIME =      3.06
      KODE = 2  NTRIAL =   0  T = 298.1500  P =  80000.0      V =  1.00000      Q =  38.2905    

      UOS BLOCK B13      MODEL: COMPR                                             TIME =      3.06
      OUTLET TEMP =   325.5       OUTLET PRES =  0.1000E+06   INDICATED HP =   3.798       BRAKE HP =   3.798    
      ISENTR TEMP =   317.8      CALC ISENTR EFF =  0.7200      ISENTR HP =   2.735      HP =  0.1815E-04

      UOS BLOCK E1       MODEL: RCSTR                                             TIME =      3.06
      KODE = 2   NO. TEMP ITER =    1     TEMP =  298.150    
      KPHASE =    1 KODE =    2 T =  298.150     P =  100000.     Q = -4.26258    
      REACTOR DUTY =  -4.26258      VOLUME =  0.100000E-01  RES TIME =   84.3663    
      REACTOR T =   298.150      P =   100000.      V =   1.00000    

      CONVERGENCE BLOCK $OLVER01  METHOD: WEGSTEIN                                TIME =      3.06
      ITER   1 For Tear Streams: S11

      --FLASH TEAR STREAM S11     
      KODE = 1   NO. TEMP ITER =    3     TEMP =  297.773    
      KPHASE =    1 KODE =    1 T =  297.773     P =  100000.     Q =  0.00000    

  LOOP $OLVER01 ITER    1:   6 VARS NOT CONVERGED, MAX ERR/TOL      7232.7        TIME =      3.06

      UOS BLOCK B3       MODEL: HEATER                                            TIME =      3.06
      KODE = 2  NTRIAL =   2  T =  23.7700  P =  98000.0      V =  0.00000      Q = -48.5906    

      UOS BLOCK CD1      MODEL: RADFRAC                                           TIME =      3.06

       Convergence iterations:
         OL   ML   IL     Err/Tol
          1   10   34      31.831    
          2    4   11      16.441    
          3    3    7      9.3247    
          4    2    3      5.6846    
          5    2    3      2.0292    
          6    2    3     0.44333    

      RESULTS FOR MANIPULATED VARIABLES:
      VARIABLE     FINAL VALUE    LOWER BOUND    UPPER BOUND
         1         0.27783        0.20000        0.80000    

      UOS BLOCK B9       MODEL: VALVE                                             TIME =      3.07
      KODE = 1  NTRIAL =   9  T =  23.9006  P =  90000.0      V = 1.131291E-02  Q =  0.00000    
      OUTLET PRES =   0.9000E+05 PRES DROP =   0.1000E+05

      UOS BLOCK B6       MODEL: HEATER                                            TIME =      3.07
      KODE = 2  NTRIAL =   2  T =  25.0000  P =  89500.0      V =  1.00000      Q =  9.95356    

      UOS BLOCK B15      MODEL: COMPR                                             TIME =      3.07
      OUTLET TEMP =   25.58       OUTLET PRES =  0.9500E+05   INDICATED HP =  0.1171       BRAKE HP =  0.1171    
      ISENTR TEMP =   25.43      CALC ISENTR EFF =  0.7200      ISENTR HP =  0.8428E-01  HP =  0.8590E-06

      UOS BLOCK CD2      MODEL: RADFRAC                                           TIME =      3.07

       Convergence iterations:
         OL   ML   IL     Err/Tol
          1    6   10     0.95145    

      RESULTS FOR MANIPULATED VARIABLES:
      VARIABLE     FINAL VALUE    LOWER BOUND    UPPER BOUND
         1         0.76707        0.50000        0.99900    

      UOS BLOCK B7       MODEL: VALVE                                             TIME =      3.07
      KODE = 1   NO. TEMP ITER =    4     TEMP =  23.8080    
      KPHASE =    1 KODE =    1 T =  23.8080     P =  85000.0     Q =  0.00000    
      OUTLET PRES =   0.8500E+05 PRES DROP =    5000.    

      UOS BLOCK B2       MODEL: HEATER                                            TIME =      3.07
      KODE = 2  NTRIAL =   0  T = 298.1500  P =  80000.0      V =  1.00000      Q =  45.0933    

      UOS BLOCK B13      MODEL: COMPR                                             TIME =      3.07
      OUTLET TEMP =   325.5       OUTLET PRES =  0.1000E+06   INDICATED HP =   4.473       BRAKE HP =   4.473    
      ISENTR TEMP =   317.8      CALC ISENTR EFF =  0.7200      ISENTR HP =   3.220      HP =  0.2518E-04

      UOS BLOCK E1       MODEL: RCSTR                                             TIME =      3.07
      KODE = 2   NO. TEMP ITER =    1     TEMP =  298.150    
      KPHASE =    1 KODE =    2 T =  298.150     P =  100000.     Q = -5.02257    
      REACTOR DUTY =  -5.02257      VOLUME =  0.100000E-01  RES TIME =   71.6388    
      REACTOR T =   298.150      P =   100000.      V =   1.00000    

      CONVERGENCE BLOCK $OLVER01  METHOD: WEGSTEIN                                TIME =      3.07
      ITER   2 For Tear Streams: S11

[...]

      UOS BLOCK B10      MODEL: VALVE                                             TIME =     15.97
      KODE = 1  NTRIAL =   8  T =  24.2146  P =  95000.0      V = 5.521167E-03  Q =  0.00000    
      OUTLET PRES =   0.9500E+05 PRES DROP =    5000.    

      GENERATING RESULTS FOR UOS BLOCK B2       MODEL: HEATER                     TIME =     15.97

      GENERATING RESULTS FOR UOS BLOCK B3       MODEL: HEATER                     TIME =     15.97

      GENERATING RESULTS FOR UOS BLOCK B4       MODEL: HEATER                     TIME =     15.97

      GENERATING RESULTS FOR UOS BLOCK B5       MODEL: HEATER                     TIME =     15.97

      GENERATING RESULTS FOR UOS BLOCK B6       MODEL: HEATER                     TIME =     15.97

      CHECKING PHASE EQUILIBRIUM RESULTS                                          TIME =     15.97

      CHECKING PHASE EQUILIBRIUM RESULTS                                          TIME =     15.97


*** INPUT SPECIFICATION MESSAGES ***

 CHANGES WERE MADE TO STREAM       FROMTEP  08/18/2025   13:37:56:99 
 STREAM FROMTEP
     SUBSTREAM MIXED TEMP=23.8872 <K> PRES=100. <kPa>  &
         MOLE-FLOW=19.328396843 <mol/hr>
     MOLE-FRAC H2 5.7181329E-06 / HD 0.00286076172 / HT  &
         0.00191032559 / D2 0.35780724597 / DT 0.47786457426 /  &
         T2 0.15955137431

 PDF updated                                                                      TIME =     16.23
 THIS COPY OF ASPEN PLUS LICENSED TO                                 

      CHECKING PHASE EQUILIBRIUM RESULTS                                          TIME =     16.24


Calculations begin                                                              time     16.24


      ENTHALPY CALCULATION FOR INLET STREAM FROMTEP OF BLOCK VALVE1               TIME =     16.24
      KODE = 2  NTRIAL =   2  T =  23.8872  P =  100000.      V =  1.00000      Q =  0.00000    

      UOS BLOCK VALVE1   MODEL: VALVE                                             TIME =     16.24
      KODE = 1   NO. TEMP ITER =    7     TEMP =  41.5683    
      KPHASE =    2 KODE =    1 T =  41.5683     P =  95556.0     Q =  0.00000    
      OUTLET PRES =   0.9556E+05 PRES DROP =    4444.    

      CONVERGENCE BLOCK $OLVER01  METHOD: WEGSTEIN                                TIME =     16.24
      ITER   0 For Tear Streams: S11

      UOS BLOCK B3       MODEL: HEATER                                            TIME =     16.24
      KODE = 2  NTRIAL =   2  T =  23.7700  P =  98000.0      V =  0.00000      Q = -56.7814    

      UOS BLOCK CD1      MODEL: RADFRAC                                           TIME =     16.24

       Convergence iterations:
         OL   ML   IL     Err/Tol
          1    3    6     0.32014E-02

      RESULTS FOR MANIPULATED VARIABLES:
      VARIABLE     FINAL VALUE    LOWER BOUND    UPPER BOUND
         1         0.28162        0.20000        0.80000    

      UOS BLOCK B9       MODEL: VALVE                                             TIME =     16.24
      KODE = 1  NTRIAL =   9  T =  23.9057  P =  90000.0      V = 1.129761E-02  Q =  0.00000    
      OUTLET PRES =   0.9000E+05 PRES DROP =   0.1000E+05

      UOS BLOCK B6       MODEL: HEATER                                            TIME =     16.24
      KODE = 2  NTRIAL =   2  T =  25.0000  P =  89500.0      V =  1.00000      Q =  11.1658    

      UOS BLOCK B15      MODEL: COMPR                                             TIME =     16.24
      OUTLET TEMP =   25.58       OUTLET PRES =  0.9500E+05   INDICATED HP =  0.1313       BRAKE HP =  0.1313    
      ISENTR TEMP =   25.43      CALC ISENTR EFF =  0.7200      ISENTR HP =  0.9455E-01  HP =  0.1081E-05

      UOS BLOCK CD2      MODEL: RADFRAC                                           TIME =     16.24

       Convergence iterations:
         OL   ML   IL     Err/Tol
          1    3    5     0.38834E-04

      RESULTS FOR MANIPULATED VARIABLES:
      VARIABLE     FINAL VALUE    LOWER BOUND    UPPER BOUND
         1         0.73983        0.50000        0.99900    

      UOS BLOCK B7       MODEL: VALVE                                             TIME =     16.24
      KODE = 1   NO. TEMP ITER =    4     TEMP =  23.8083    
      KPHASE =    1 KODE =    1 T =  23.8083     P =  85000.0     Q =  0.00000    
      OUTLET PRES =   0.8500E+05 PRES DROP =    5000.    

      UOS BLOCK B2       MODEL: HEATER                                            TIME =     16.24
      KODE = 2  NTRIAL =   0  T = 298.1500  P =  80000.0      V =  1.00000      Q =  48.7861    

      UOS BLOCK B13      MODEL: COMPR                                             TIME =     16.24
      OUTLET TEMP =   325.5       OUTLET PRES =  0.1000E+06   INDICATED HP =   4.839       BRAKE HP =   4.839    
      ISENTR TEMP =   317.8      CALC ISENTR EFF =  0.7200      ISENTR HP =   3.484      HP =  0.2947E-04

      UOS BLOCK E1       MODEL: RCSTR                                             TIME =     16.24
      KODE = 2   NO. TEMP ITER =    1     TEMP =  298.150    
      KPHASE =    1 KODE =    2 T =  298.150     P =  100000.     Q = -5.42891    
      REACTOR DUTY =  -5.42891      VOLUME =  0.100000E-01  RES TIME =   66.2161    
      REACTOR T =   298.150      P =   100000.      V =   1.00000    

      CONVERGENCE BLOCK $OLVER01  METHOD: WEGSTEIN                                TIME =     16.24
      ITER   1 For Tear Streams: S11

      --FLASH TEAR STREAM S11     
      KODE = 1   NO. TEMP ITER =    3     TEMP =  298.150    
      KPHASE =    1 KODE =    1 T =  298.150     P =  100000.     Q =  0.00000    

  LOOP $OLVER01 ITER    1:   4 VARS NOT CONVERGED, MAX ERR/TOL      1.0595        TIME =     16.25

      UOS BLOCK B3       MODEL: HEATER                                            TIME =     16.25
      KODE = 2  NTRIAL =   2  T =  23.7700  P =  98000.0      V =  0.00000      Q = -56.7844    

      UOS BLOCK CD1      MODEL: RADFRAC                                           TIME =     16.25

       Convergence iterations:
         OL   ML   IL     Err/Tol
          1    4    7     0.70076E-02

      RESULTS FOR MANIPULATED VARIABLES:
      VARIABLE     FINAL VALUE    LOWER BOUND    UPPER BOUND
         1         0.28162        0.20000        0.80000    

      UOS BLOCK B9       MODEL: VALVE                                             TIME =     16.25
      KODE = 1  NTRIAL =   9  T =  23.9057  P =  90000.0      V = 1.129760E-02  Q =  0.00000    
      OUTLET PRES =   0.9000E+05 PRES DROP =   0.1000E+05

      UOS BLOCK B6       MODEL: HEATER                                            TIME =     16.25
      KODE = 2  NTRIAL =   2  T =  25.0000  P =  89500.0      V =  1.00000      Q =  11.1662    

      UOS BLOCK B15      MODEL: COMPR                                             TIME =     16.25
      OUTLET TEMP =   25.58       OUTLET PRES =  0.9500E+05   INDICATED HP =  0.1313       BRAKE HP =  0.1313    
      ISENTR TEMP =   25.43      CALC ISENTR EFF =  0.7200      ISENTR HP =  0.9455E-01  HP =  0.1081E-05

      UOS BLOCK CD2      MODEL: RADFRAC                                           TIME =     16.25

       Convergence iterations:
         OL   ML   IL     Err/Tol
          1    3    5     0.97242E-04

      RESULTS FOR MANIPULATED VARIABLES:
      VARIABLE     FINAL VALUE    LOWER BOUND    UPPER BOUND
         1         0.73983        0.50000        0.99900    

      UOS BLOCK B7       MODEL: VALVE                                             TIME =     16.25
      KODE = 1   NO. TEMP ITER =    4     TEMP =  23.8083    
      KPHASE =    1 KODE =    1 T =  23.8083     P =  85000.0     Q =  0.00000    
      OUTLET PRES =   0.8500E+05 PRES DROP =    5000.    

      UOS BLOCK B2       MODEL: HEATER                                            TIME =     16.25
      KODE = 2  NTRIAL =   0  T = 298.1500  P =  80000.0      V =  1.00000      Q =  48.7875    

      UOS BLOCK B13      MODEL: COMPR                                             TIME =     16.25
      OUTLET TEMP =   325.5       OUTLET PRES =  0.1000E+06   INDICATED HP =   4.839       BRAKE HP =   4.839    
      ISENTR TEMP =   317.8      CALC ISENTR EFF =  0.7200      ISENTR HP =   3.484      HP =  0.2947E-04

      UOS BLOCK E1       MODEL: RCSTR                                             TIME =     16.25
      KODE = 2   NO. TEMP ITER =    1     TEMP =  298.150    
      KPHASE =    1 KODE =    2 T =  298.150     P =  100000.     Q = -5.42907    
      REACTOR DUTY =  -5.42907      VOLUME =  0.100000E-01  RES TIME =   66.2142    
      REACTOR T =   298.150      P =   100000.      V =   1.00000    

      CONVERGENCE BLOCK $OLVER01  METHOD: WEGSTEIN                                TIME =     16.25
      ITER   2 For Tear Streams: S11

  LOOP $OLVER01 ITER    2:     *** CONVERGED *** , MAX ERR/TOL     0.57196        TIME =     16.25

      UOS BLOCK B8       MODEL: VALVE                                             TIME =     16.25
      KODE = 1   NO. TEMP ITER =    4     TEMP =  22.5782    
      KPHASE =    1 KODE =    1 T =  22.5782     P =  85000.0     Q =  0.00000    
      OUTLET PRES =   0.8500E+05 PRES DROP =    5000.    

      UOS BLOCK B4       MODEL: HEATER                                            TIME =     16.25
      KODE = 2  NTRIAL =   0  T = 298.1500  P =  80000.0      V =  1.00000      Q =  25.9698    

      UOS BLOCK B14      MODEL: COMPR                                             TIME =     16.25
      OUTLET TEMP =   325.5       OUTLET PRES =  0.1000E+06   INDICATED HP =   2.564       BRAKE HP =   2.564    
      ISENTR TEMP =   317.8      CALC ISENTR EFF =  0.7200      ISENTR HP =   1.846      HP =  0.8275E-05

      UOS BLOCK E2       MODEL: RCSTR                                             TIME =     16.25
      KODE = 2   NO. TEMP ITER =    1     TEMP =  298.150    
      KPHASE =    1 KODE =    2 T =  298.150     P =  100000.     Q = -2.56252    
      REACTOR DUTY =  -2.56252      VOLUME =  0.100000E-01  RES TIME =   124.960    
      REACTOR T =   298.150      P =   100000.      V =   1.00000    

      UOS BLOCK B5       MODEL: HEATER                                            TIME =     16.25
      KODE = 2  NTRIAL =   2  T =  23.7700  P =  99152.6      V =  1.00000      Q = -25.8672    

      UOS BLOCK CD3      MODEL: RADFRAC                                           TIME =     16.25

       Convergence iterations:
         OL   ML   IL     Err/Tol
          1    3    5     0.13319E-02

      RESULTS FOR MANIPULATED VARIABLES:
      VARIABLE     FINAL VALUE    LOWER BOUND    UPPER BOUND
         1         0.14583E-01    0.10000E-04    0.99000    

      UOS BLOCK B11      MODEL: VALVE                                             TIME =     16.26
      NO. TEMP ITER =    4     TEMP =  21.8713    
      KODE = 1  NTRIAL =   2  T =  21.8713  P =  75000.0      V =  1.00000      Q =  0.00000    
      OUTLET PRES =   0.7500E+05 PRES DROP =    5000.    

      UOS BLOCK B12      MODEL: VALVE                                             TIME =     16.26
      KODE = 1  NTRIAL =   8  T =  22.8019  P =  95000.0      V = 5.912297E-03  Q =  0.00000    
      OUTLET PRES =   0.9500E+05 PRES DROP =    5000.    

      UOS BLOCK B10      MODEL: VALVE                                             TIME =     16.26
      KODE = 1  NTRIAL =   8  T =  24.2146  P =  95000.0      V = 5.521167E-03  Q =  0.00000    
      OUTLET PRES =   0.9500E+05 PRES DROP =    5000.    

      GENERATING RESULTS FOR UOS BLOCK B2       MODEL: HEATER                     TIME =     16.26

      GENERATING RESULTS FOR UOS BLOCK B3       MODEL: HEATER                     TIME =     16.26

      GENERATING RESULTS FOR UOS BLOCK B4       MODEL: HEATER                     TIME =     16.26

      GENERATING RESULTS FOR UOS BLOCK B5       MODEL: HEATER                     TIME =     16.26

      GENERATING RESULTS FOR UOS BLOCK B6       MODEL: HEATER                     TIME =     16.26

      CHECKING PHASE EQUILIBRIUM RESULTS                                          TIME =     16.26

      CHECKING PHASE EQUILIBRIUM RESULTS                                          TIME =     16.26


*** INPUT SPECIFICATION MESSAGES ***

 CHANGES WERE MADE TO STREAM       FROMTEP  08/18/2025   13:37:56:99 
 STREAM FROMTEP
     SUBSTREAM MIXED TEMP=23.8872 <K> PRES=100. <kPa>  &
         MOLE-FLOW=19.328756084 <mol/hr>
     MOLE-FRAC H2 5.7181331E-06 / HD 0.00286076176 / HT  &
         0.00191032562 / D2 0.35780724608 / DT 0.47786457418 /  &
         T2 0.15955137421

 PDF updated                                                                      TIME =     16.50
 THIS COPY OF ASPEN PLUS LICENSED TO                                 

      CHECKING PHASE EQUILIBRIUM RESULTS                                          TIME =     16.51


Calculations begin                                                              time     16.52


      ENTHALPY CALCULATION FOR INLET STREAM FROMTEP OF BLOCK VALVE1               TIME =     16.52
      KODE = 2  NTRIAL =   2  T =  23.8872  P =  100000.      V =  1.00000      Q =  0.00000    

      UOS BLOCK VALVE1   MODEL: VALVE                                             TIME =     16.52
      KODE = 1   NO. TEMP ITER =    7     TEMP =  41.5683    
      KPHASE =    2 KODE =    1 T =  41.5683     P =  95556.0     Q =  0.00000    
      OUTLET PRES =   0.9556E+05 PRES DROP =    4444.    

      CONVERGENCE BLOCK $OLVER01  METHOD: WEGSTEIN                                TIME =     16.52
      ITER   0 For Tear Streams: S11

      UOS BLOCK B3       MODEL: HEATER                                            TIME =     16.52
      KODE = 2  NTRIAL =   2  T =  23.7700  P =  98000.0      V =  0.00000      Q = -56.7844    

      UOS BLOCK CD1      MODEL: RADFRAC                                           TIME =     16.52

       Convergence iterations:
         OL   ML   IL     Err/Tol
          1    3    6     0.25977E-02

      RESULTS FOR MANIPULATED VARIABLES:
      VARIABLE     FINAL VALUE    LOWER BOUND    UPPER BOUND
         1         0.28162        0.20000        0.80000    

      UOS BLOCK B9       MODEL: VALVE                                             TIME =     16.52
      KODE = 1  NTRIAL =   9  T =  23.9057  P =  90000.0      V = 1.129761E-02  Q =  0.00000    
      OUTLET PRES =   0.9000E+05 PRES DROP =   0.1000E+05

      UOS BLOCK B6       MODEL: HEATER                                            TIME =     16.52
      KODE = 2  NTRIAL =   2  T =  25.0000  P =  89500.0      V =  1.00000      Q =  11.1663    

      UOS BLOCK B15      MODEL: COMPR                                             TIME =     16.52
      OUTLET TEMP =   25.58       OUTLET PRES =  0.9500E+05   INDICATED HP =  0.1313       BRAKE HP =  0.1313    
      ISENTR TEMP =   25.43      CALC ISENTR EFF =  0.7200      ISENTR HP =  0.9455E-01  HP =  0.1081E-05

      UOS BLOCK CD2      MODEL: RADFRAC                                           TIME =     16.52

       Convergence iterations:
         OL   ML   IL     Err/Tol
          1    3    5     0.42945E-04

      RESULTS FOR MANIPULATED VARIABLES:
      VARIABLE     FINAL VALUE    LOWER BOUND    UPPER BOUND
         1         0.73983        0.50000        0.99900    

      UOS BLOCK B7       MODEL: VALVE                                             TIME =     16.53
      KODE = 1   NO. TEMP ITER =    4     TEMP =  23.8083    
      KPHASE =    1 KODE =    1 T =  23.8083     P =  85000.0     Q =  0.00000    
      OUTLET PRES =   0.8500E+05 PRES DROP =    5000.    

      UOS BLOCK B2       MODEL: HEATER                                            TIME =     16.53
      KODE = 2  NTRIAL =   0  T = 298.1500  P =  80000.0      V =  1.00000      Q =  48.7879    

      UOS BLOCK B13      MODEL: COMPR                                             TIME =     16.53
      OUTLET TEMP =   325.5       OUTLET PRES =  0.1000E+06   INDICATED HP =   4.839       BRAKE HP =   4.839    
      ISENTR TEMP =   317.8      CALC ISENTR EFF =  0.7200      ISENTR HP =   3.484      HP =  0.2947E-04

      UOS BLOCK E1       MODEL: RCSTR                                             TIME =     16.53
      KODE = 2   NO. TEMP ITER =    1     TEMP =  298.150    
      KPHASE =    1 KODE =    2 T =  298.150     P =  100000.     Q = -5.42912    
      REACTOR DUTY =  -5.42912      VOLUME =  0.100000E-01  RES TIME =   66.2136    
      REACTOR T =   298.150      P =   100000.      V =   1.00000    

      CONVERGENCE BLOCK $OLVER01  METHOD: WEGSTEIN                                TIME =     16.53
      ITER   1 For Tear Streams: S11

  LOOP $OLVER01 ITER    1:     *** CONVERGED *** , MAX ERR/TOL     0.74278        TIME =     16.53

      UOS BLOCK B8       MODEL: VALVE                                             TIME =     16.53
      KODE = 1   NO. TEMP ITER =    4     TEMP =  22.5782    
      KPHASE =    1 KODE =    1 T =  22.5782     P =  85000.0     Q =  0.00000    
      OUTLET PRES =   0.8500E+05 PRES DROP =    5000.    

      UOS BLOCK B4       MODEL: HEATER                                            TIME =     16.53
      KODE = 2  NTRIAL =   0  T = 298.1500  P =  80000.0      V =  1.00000      Q =  25.9701    

      UOS BLOCK B14      MODEL: COMPR                                             TIME =     16.53
      OUTLET TEMP =   325.5       OUTLET PRES =  0.1000E+06   INDICATED HP =   2.564       BRAKE HP =   2.564    
      ISENTR TEMP =   317.8      CALC ISENTR EFF =  0.7200      ISENTR HP =   1.846      HP =  0.8275E-05

      UOS BLOCK E2       MODEL: RCSTR                                             TIME =     16.53
      KODE = 2   NO. TEMP ITER =    1     TEMP =  298.150    
      KPHASE =    1 KODE =    2 T =  298.150     P =  100000.     Q = -2.56255    
      REACTOR DUTY =  -2.56255      VOLUME =  0.100000E-01  RES TIME =   124.959    
      REACTOR T =   298.150      P =   100000.      V =   1.00000    

      UOS BLOCK B5       MODEL: HEATER                                            TIME =     16.53
      KODE = 2  NTRIAL =   2  T =  23.7700  P =  99152.6      V =  1.00000      Q = -25.8675    

      UOS BLOCK CD3      MODEL: RADFRAC                                           TIME =     16.53

       Convergence iterations:
         OL   ML   IL     Err/Tol
          1    3    5     0.67247E-03

      RESULTS FOR MANIPULATED VARIABLES:
      VARIABLE     FINAL VALUE    LOWER BOUND    UPPER BOUND
         1         0.14583E-01    0.10000E-04    0.99000    

      UOS BLOCK B11      MODEL: VALVE                                             TIME =     16.53
      NO. TEMP ITER =    4     TEMP =  21.8713    
      KODE = 1  NTRIAL =   2  T =  21.8713  P =  75000.0      V =  1.00000      Q =  0.00000    
      OUTLET PRES =   0.7500E+05 PRES DROP =    5000.    

      UOS BLOCK B12      MODEL: VALVE                                             TIME =     16.53
      KODE = 1  NTRIAL =   8  T =  22.8019  P =  95000.0      V = 5.912291E-03  Q =  0.00000    
      OUTLET PRES =   0.9500E+05 PRES DROP =    5000.    

      UOS BLOCK B10      MODEL: VALVE                                             TIME =     16.53
      KODE = 1  NTRIAL =   8  T =  24.2146  P =  95000.0      V = 5.521167E-03  Q =  0.00000    
      OUTLET PRES =   0.9500E+05 PRES DROP =    5000.    

      GENERATING RESULTS FOR UOS BLOCK B2       MODEL: HEATER                     TIME =     16.53

      GENERATING RESULTS FOR UOS BLOCK B3       MODEL: HEATER                     TIME =     16.53

      GENERATING RESULTS FOR UOS BLOCK B4       MODEL: HEATER                     TIME =     16.53

      GENERATING RESULTS FOR UOS BLOCK B5       MODEL: HEATER                     TIME =     16.53

      GENERATING RESULTS FOR UOS BLOCK B6       MODEL: HEATER                     TIME =     16.53

      CHECKING PHASE EQUILIBRIUM RESULTS                                          TIME =     16.53

      CHECKING PHASE EQUILIBRIUM RESULTS                                          TIME =     16.54
